* NGSPICE file created from ram32_sram.ext - technology: scmos

* Black-box entry subcircuit for FILL abstract view
.subckt FILL gnd vdd
.ends

* Black-box entry subcircuit for MUX2X1 abstract view
.subckt MUX2X1 A B S gnd Y vdd
.ends

* Black-box entry subcircuit for NAND2X1 abstract view
.subckt NAND2X1 A B gnd Y vdd
.ends

* Black-box entry subcircuit for OAI21X1 abstract view
.subckt OAI21X1 A B C gnd Y vdd
.ends

* Black-box entry subcircuit for AOI22X1 abstract view
.subckt AOI22X1 A B C D gnd Y vdd
.ends

* Black-box entry subcircuit for DFFPOSX1 abstract view
.subckt DFFPOSX1 Q CLK D gnd vdd
.ends

* Black-box entry subcircuit for BUFX4 abstract view
.subckt BUFX4 A gnd Y vdd
.ends

* Black-box entry subcircuit for INVX8 abstract view
.subckt INVX8 A gnd Y vdd
.ends

* Black-box entry subcircuit for CLKBUF1 abstract view
.subckt CLKBUF1 A gnd Y vdd
.ends

* Black-box entry subcircuit for INVX4 abstract view
.subckt INVX4 A gnd Y vdd
.ends

* Black-box entry subcircuit for AOI21X1 abstract view
.subckt AOI21X1 A B C gnd Y vdd
.ends

* Black-box entry subcircuit for BUFX2 abstract view
.subckt BUFX2 A gnd Y vdd
.ends

* Black-box entry subcircuit for INVX2 abstract view
.subckt INVX2 A gnd Y vdd
.ends

* Black-box entry subcircuit for NOR2X1 abstract view
.subckt NOR2X1 A B gnd Y vdd
.ends

* Black-box entry subcircuit for INVX1 abstract view
.subckt INVX1 A gnd Y vdd
.ends

* Black-box entry subcircuit for AND2X2 abstract view
.subckt AND2X2 A B gnd Y vdd
.ends

* Black-box entry subcircuit for OR2X2 abstract view
.subckt OR2X2 A B gnd Y vdd
.ends

.subckt ram32_sram vdd gnd enable clk r_w datain[0] datain[1] datain[2] datain[3]
+ datain[4] datain[5] datain[6] datain[7] address[0] address[1] address[2] address[3]
+ address[4] dataout[0] dataout[1] dataout[2] dataout[3] dataout[4] dataout[5] dataout[6]
+ dataout[7]
XFILL_23_3_0 gnd vdd FILL
XMUX2X1_17 NOR2X1_35/A MUX2X1_17/B MUX2X1_1/S gnd MUX2X1_18/A vdd MUX2X1
XFILL_14_3_0 gnd vdd FILL
XMUX2X1_39 MUX2X1_38/Y MUX2X1_39/B BUFX4_11/Y gnd AOI22X1_7/A vdd MUX2X1
XMUX2X1_28 MUX2X1_28/A MUX2X1_28/B BUFX4_36/Y gnd MUX2X1_28/Y vdd MUX2X1
XNAND2X1_43 NAND2X1_43/A OAI21X1_38/B gnd OAI21X1_38/C vdd NAND2X1
XNAND2X1_54 MUX2X1_5/B OAI21X1_52/B gnd NAND2X1_54/Y vdd NAND2X1
XNAND2X1_65 MUX2X1_59/B NAND2X1_65/B gnd OAI21X1_57/C vdd NAND2X1
XOAI21X1_190 BUFX4_57/Y OAI21X1_183/B OAI21X1_190/C gnd DFFPOSX1_8/D vdd OAI21X1
XAOI22X1_30 AOI22X1_30/A AOI22X1_2/B AOI22X1_2/C MUX2X1_180/Y gnd AOI22X1_30/Y vdd
+ AOI22X1
XNAND2X1_10 MUX2X1_32/B OAI21X1_7/B gnd OAI21X1_8/C vdd NAND2X1
XNAND2X1_21 MUX2X1_73/B OAI21X1_18/B gnd OAI21X1_18/C vdd NAND2X1
XNAND2X1_87 MUX2X1_163/A NAND2X1_88/B gnd NAND2X1_87/Y vdd NAND2X1
XNAND2X1_76 NAND2X1_76/A NAND2X1_79/B gnd NAND2X1_76/Y vdd NAND2X1
XNAND2X1_98 AND2X2_2/B NOR2X1_2/Y gnd OAI21X1_90/B vdd NAND2X1
XNAND2X1_32 MUX2X1_127/B NAND2X1_27/B gnd OAI21X1_28/C vdd NAND2X1
XFILL_20_1_0 gnd vdd FILL
XFILL_19_2_0 gnd vdd FILL
XFILL_11_1_0 gnd vdd FILL
XFILL_3_2_0 gnd vdd FILL
XOAI21X1_19 BUFX4_3/Y OAI21X1_18/B NAND2X1_22/Y gnd OAI21X1_19/Y vdd OAI21X1
XDFFPOSX1_169 MUX2X1_22/B CLKBUF1_23/A OAI21X1_95/Y gnd vdd DFFPOSX1
XDFFPOSX1_147 MUX2X1_67/A CLKBUF1_22/Y OAI21X1_73/Y gnd vdd DFFPOSX1
XDFFPOSX1_136 MUX2X1_179/B CLKBUF1_4/Y OAI21X1_62/Y gnd vdd DFFPOSX1
XNAND2X1_228 MUX2X1_79/A OAI21X1_183/B gnd OAI21X1_186/C vdd NAND2X1
XFILL_12_3 gnd vdd FILL
XDFFPOSX1_114 MUX2X1_28/A CLKBUF1_25/Y OAI21X1_40/Y gnd vdd DFFPOSX1
XNAND2X1_206 r_w BUFX2_4/A gnd AOI21X1_28/A vdd NAND2X1
XDFFPOSX1_158 MUX2X1_140/B CLKBUF1_43/Y OAI21X1_84/Y gnd vdd DFFPOSX1
XNAND2X1_239 MUX2X1_130/A OAI21X1_193/B gnd OAI21X1_196/C vdd NAND2X1
XNAND2X1_217 AOI22X1_27/Y AOI22X1_28/Y gnd OAI21X1_181/B vdd NAND2X1
XDFFPOSX1_125 NAND2X1_58/A CLKBUF1_35/Y OAI21X1_51/Y gnd vdd DFFPOSX1
XDFFPOSX1_103 NOR2X1_17/A CLKBUF1_6/Y AOI21X1_15/Y gnd vdd DFFPOSX1
XBUFX4_52 INVX8_2/Y gnd BUFX4_52/Y vdd BUFX4
XBUFX4_41 INVX8_7/Y gnd BUFX4_41/Y vdd BUFX4
XBUFX4_30 address[0] gnd MUX2X1_2/S vdd BUFX4
XFILL_0_0_0 gnd vdd FILL
XFILL_16_0_0 gnd vdd FILL
XFILL_8_1_0 gnd vdd FILL
XFILL_23_3_1 gnd vdd FILL
XMUX2X1_18 MUX2X1_18/A MUX2X1_16/Y BUFX4_12/Y gnd AOI22X1_3/D vdd MUX2X1
XMUX2X1_29 MUX2X1_29/A MUX2X1_29/B BUFX4_37/Y gnd MUX2X1_30/A vdd MUX2X1
XNAND2X1_88 MUX2X1_187/A NAND2X1_88/B gnd OAI21X1_78/C vdd NAND2X1
XNAND2X1_11 MUX2X1_56/B OAI21X1_7/B gnd OAI21X1_9/C vdd NAND2X1
XAOI22X1_1 MUX2X1_3/Y NOR2X1_2/Y AOI22X1_9/C MUX2X1_6/Y gnd AOI22X1_1/Y vdd AOI22X1
XNAND2X1_99 MUX2X1_1/A OAI21X1_90/B gnd OAI21X1_87/C vdd NAND2X1
XOAI21X1_191 BUFX4_19/Y OAI21X1_193/B OAI21X1_191/C gnd DFFPOSX1_9/D vdd OAI21X1
XFILL_14_3_1 gnd vdd FILL
XNAND2X1_55 MUX2X1_29/B OAI21X1_52/B gnd OAI21X1_48/C vdd NAND2X1
XNAND2X1_77 NAND2X1_77/A NAND2X1_79/B gnd NAND2X1_77/Y vdd NAND2X1
XNAND2X1_44 AND2X2_2/B AOI22X1_9/C gnd NAND2X1_50/B vdd NAND2X1
XNAND2X1_66 MUX2X1_83/B NAND2X1_65/B gnd OAI21X1_58/C vdd NAND2X1
XOAI21X1_180 NAND2X1_213/Y OAI21X1_180/B INVX4_2/Y gnd AOI21X1_30/B vdd OAI21X1
XNAND2X1_33 NAND2X1_33/A NAND2X1_27/B gnd OAI21X1_29/C vdd NAND2X1
XNAND2X1_22 MUX2X1_97/B OAI21X1_18/B gnd NAND2X1_22/Y vdd NAND2X1
XAOI22X1_31 AOI22X1_31/A AOI22X1_3/B INVX8_9/Y AOI22X1_31/D gnd AOI22X1_31/Y vdd AOI22X1
XAOI22X1_20 AOI22X1_20/A AOI22X1_4/B AOI22X1_4/C MUX2X1_120/Y gnd AOI22X1_20/Y vdd
+ AOI22X1
XFILL_20_1_1 gnd vdd FILL
XFILL_11_1_1 gnd vdd FILL
XFILL_3_2_1 gnd vdd FILL
XDFFPOSX1_137 MUX2X1_19/B CLKBUF1_32/A OAI21X1_63/Y gnd vdd DFFPOSX1
XNAND2X1_218 r_w BUFX2_8/A gnd AOI21X1_32/A vdd NAND2X1
XDFFPOSX1_104 NOR2X1_18/A CLKBUF1_2/Y AOI21X1_16/Y gnd vdd DFFPOSX1
XFILL_19_2_1 gnd vdd FILL
XDFFPOSX1_115 MUX2X1_52/A CLKBUF1_21/Y OAI21X1_41/Y gnd vdd DFFPOSX1
XDFFPOSX1_148 MUX2X1_91/A CLKBUF1_17/Y OAI21X1_74/Y gnd vdd DFFPOSX1
XNAND2X1_207 AOI22X1_13/Y AOI22X1_14/Y gnd NAND2X1_207/Y vdd NAND2X1
XNAND2X1_229 MUX2X1_103/A OAI21X1_183/B gnd NAND2X1_229/Y vdd NAND2X1
XDFFPOSX1_126 MUX2X1_125/B CLKBUF1_9/A OAI21X1_52/Y gnd vdd DFFPOSX1
XDFFPOSX1_159 MUX2X1_164/B CLKBUF1_7/A OAI21X1_85/Y gnd vdd DFFPOSX1
XBUFX4_20 INVX8_1/Y gnd BUFX4_20/Y vdd BUFX4
XBUFX4_53 INVX8_2/Y gnd BUFX4_53/Y vdd BUFX4
XBUFX4_42 INVX8_7/Y gnd BUFX4_42/Y vdd BUFX4
XBUFX4_31 address[0] gnd MUX2X1_4/S vdd BUFX4
XFILL_10_1 gnd vdd FILL
XFILL_0_0_1 gnd vdd FILL
XFILL_16_0_1 gnd vdd FILL
XFILL_8_1_1 gnd vdd FILL
XMUX2X1_19 MUX2X1_19/A MUX2X1_19/B MUX2X1_2/S gnd MUX2X1_19/Y vdd MUX2X1
XNAND2X1_56 MUX2X1_53/B OAI21X1_52/B gnd OAI21X1_49/C vdd NAND2X1
XOAI21X1_170 BUFX4_49/Y OAI21X1_174/B NAND2X1_192/Y gnd OAI21X1_170/Y vdd OAI21X1
XNAND2X1_45 MUX2X1_4/A NAND2X1_50/B gnd NAND2X1_45/Y vdd NAND2X1
XNAND2X1_34 MUX2X1_175/B NAND2X1_27/B gnd OAI21X1_30/C vdd NAND2X1
XAOI22X1_2 MUX2X1_9/Y AOI22X1_2/B AOI22X1_2/C MUX2X1_12/Y gnd AOI22X1_2/Y vdd AOI22X1
XNAND2X1_12 MUX2X1_80/B OAI21X1_7/B gnd OAI21X1_10/C vdd NAND2X1
XOAI21X1_192 BUFX4_54/Y OAI21X1_193/B NAND2X1_235/Y gnd DFFPOSX1_10/D vdd OAI21X1
XNAND2X1_78 MUX2X1_163/B NAND2X1_79/B gnd NAND2X1_78/Y vdd NAND2X1
XNAND2X1_89 AOI22X1_4/B NOR2X1_1/Y gnd NAND2X1_97/B vdd NAND2X1
XNAND2X1_23 MUX2X1_121/B OAI21X1_18/B gnd OAI21X1_20/C vdd NAND2X1
XNAND2X1_67 MUX2X1_107/B NAND2X1_65/B gnd NAND2X1_67/Y vdd NAND2X1
XOAI21X1_181 OAI21X1_181/A OAI21X1_181/B INVX4_2/Y gnd AOI21X1_31/B vdd OAI21X1
XAOI22X1_32 AOI22X1_32/A AOI22X1_4/B AOI22X1_4/C AOI22X1_32/D gnd AOI22X1_32/Y vdd
+ AOI22X1
XAOI22X1_10 MUX2X1_57/Y AOI22X1_2/B AOI22X1_2/C MUX2X1_60/Y gnd AOI22X1_10/Y vdd AOI22X1
XAOI22X1_21 MUX2X1_123/Y NOR2X1_2/Y AOI22X1_9/C AOI22X1_21/D gnd AOI22X1_21/Y vdd
+ AOI22X1
XDFFPOSX1_116 MUX2X1_76/A CLKBUF1_19/Y OAI21X1_42/Y gnd vdd DFFPOSX1
XDFFPOSX1_105 MUX2X1_5/A CLKBUF1_23/A OAI21X1_31/Y gnd vdd DFFPOSX1
XDFFPOSX1_138 MUX2X1_43/B CLKBUF1_6/A OAI21X1_64/Y gnd vdd DFFPOSX1
XDFFPOSX1_149 MUX2X1_115/A CLKBUF1_15/Y OAI21X1_75/Y gnd vdd DFFPOSX1
XDFFPOSX1_127 NAND2X1_60/A CLKBUF1_7/A OAI21X1_53/Y gnd vdd DFFPOSX1
XNAND2X1_219 AOI22X1_29/Y AOI22X1_30/Y gnd NAND2X1_219/Y vdd NAND2X1
XNAND2X1_208 AOI22X1_15/Y AOI22X1_16/Y gnd OAI21X1_178/B vdd NAND2X1
XINVX8_1 datain[0] gnd INVX8_1/Y vdd INVX8
XBUFX4_21 INVX8_1/Y gnd BUFX4_21/Y vdd BUFX4
XBUFX4_10 address[1] gnd BUFX4_10/Y vdd BUFX4
XBUFX4_43 INVX8_7/Y gnd BUFX4_43/Y vdd BUFX4
XBUFX4_32 address[0] gnd MUX2X1_5/S vdd BUFX4
XBUFX4_54 INVX8_2/Y gnd BUFX4_54/Y vdd BUFX4
XFILL_9_1 gnd vdd FILL
XFILL_1_3_0 gnd vdd FILL
XFILL_17_3_0 gnd vdd FILL
XOAI21X1_193 BUFX4_14/Y OAI21X1_193/B NAND2X1_236/Y gnd DFFPOSX1_11/D vdd OAI21X1
XOAI21X1_182 NAND2X1_219/Y OAI21X1_182/B INVX4_2/Y gnd AOI21X1_32/B vdd OAI21X1
XAOI22X1_3 MUX2X1_15/Y AOI22X1_3/B INVX8_9/Y AOI22X1_3/D gnd AOI22X1_3/Y vdd AOI22X1
XOAI21X1_160 BUFX4_50/Y OAI21X1_162/B OAI21X1_160/C gnd OAI21X1_160/Y vdd OAI21X1
XOAI21X1_171 BUFX4_3/Y OAI21X1_174/B NAND2X1_193/Y gnd OAI21X1_171/Y vdd OAI21X1
XNAND2X1_79 MUX2X1_187/B NAND2X1_79/B gnd OAI21X1_70/C vdd NAND2X1
XAOI22X1_11 MUX2X1_63/Y AOI22X1_3/B INVX8_9/Y MUX2X1_66/Y gnd AOI22X1_11/Y vdd AOI22X1
XNAND2X1_57 MUX2X1_77/B OAI21X1_52/B gnd OAI21X1_50/C vdd NAND2X1
XNAND2X1_46 MUX2X1_28/A NAND2X1_50/B gnd OAI21X1_40/C vdd NAND2X1
XNAND2X1_35 AND2X2_4/B AOI22X1_9/C gnd OAI21X1_38/B vdd NAND2X1
XNAND2X1_68 MUX2X1_131/B NAND2X1_65/B gnd NAND2X1_68/Y vdd NAND2X1
XAOI22X1_22 AOI22X1_22/A AOI22X1_2/B AOI22X1_2/C AOI22X1_22/D gnd AOI22X1_22/Y vdd
+ AOI22X1
XNAND2X1_24 MUX2X1_145/B OAI21X1_18/B gnd NAND2X1_24/Y vdd NAND2X1
XNAND2X1_13 MUX2X1_104/B OAI21X1_7/B gnd OAI21X1_11/C vdd NAND2X1
XFILL_23_1_0 gnd vdd FILL
XFILL_6_2_0 gnd vdd FILL
XFILL_14_1_0 gnd vdd FILL
XDFFPOSX1_128 MUX2X1_173/B CLKBUF1_1/A OAI21X1_54/Y gnd vdd DFFPOSX1
XDFFPOSX1_139 MUX2X1_67/B CLKBUF1_32/A OAI21X1_65/Y gnd vdd DFFPOSX1
XDFFPOSX1_106 MUX2X1_29/A CLKBUF1_31/A OAI21X1_32/Y gnd vdd DFFPOSX1
XDFFPOSX1_117 MUX2X1_100/A CLKBUF1_13/Y OAI21X1_43/Y gnd vdd DFFPOSX1
XNAND2X1_209 r_w BUFX2_5/A gnd AOI21X1_29/A vdd NAND2X1
XINVX8_2 datain[1] gnd INVX8_2/Y vdd INVX8
XFILL_3_0_0 gnd vdd FILL
XBUFX4_55 INVX8_8/Y gnd BUFX4_55/Y vdd BUFX4
XBUFX4_22 INVX8_1/Y gnd BUFX4_22/Y vdd BUFX4
XFILL_19_0_0 gnd vdd FILL
XBUFX4_11 address[1] gnd BUFX4_11/Y vdd BUFX4
XBUFX4_44 INVX8_7/Y gnd BUFX4_44/Y vdd BUFX4
XBUFX4_33 address[0] gnd MUX2X1_7/S vdd BUFX4
XFILL_1_3_1 gnd vdd FILL
XFILL_17_3_1 gnd vdd FILL
XOAI21X1_183 BUFX4_20/Y OAI21X1_183/B NAND2X1_225/Y gnd DFFPOSX1_1/D vdd OAI21X1
XOAI21X1_161 BUFX4_15/Y OAI21X1_162/B NAND2X1_182/Y gnd OAI21X1_161/Y vdd OAI21X1
XAOI22X1_4 AOI22X1_4/A AOI22X1_4/B AOI22X1_4/C AOI22X1_4/D gnd AOI22X1_4/Y vdd AOI22X1
XOAI21X1_150 BUFX4_57/Y NAND2X1_169/B OAI21X1_150/C gnd OAI21X1_150/Y vdd OAI21X1
XOAI21X1_194 BUFX4_48/Y OAI21X1_193/B NAND2X1_237/Y gnd DFFPOSX1_12/D vdd OAI21X1
XOAI21X1_172 BUFX4_24/Y OAI21X1_174/B OAI21X1_172/C gnd OAI21X1_172/Y vdd OAI21X1
XAOI22X1_12 MUX2X1_69/Y AOI22X1_4/B AOI22X1_4/C MUX2X1_72/Y gnd AOI22X1_12/Y vdd AOI22X1
XNAND2X1_36 MUX2X1_5/A OAI21X1_38/B gnd OAI21X1_31/C vdd NAND2X1
XNAND2X1_47 MUX2X1_52/A NAND2X1_50/B gnd NAND2X1_47/Y vdd NAND2X1
XNAND2X1_14 MUX2X1_128/B OAI21X1_7/B gnd OAI21X1_12/C vdd NAND2X1
XAOI22X1_23 MUX2X1_135/Y AOI22X1_3/B INVX8_9/Y MUX2X1_138/Y gnd AOI22X1_23/Y vdd AOI22X1
XNAND2X1_25 NAND2X1_25/A OAI21X1_18/B gnd NAND2X1_25/Y vdd NAND2X1
XNAND2X1_58 NAND2X1_58/A OAI21X1_52/B gnd NAND2X1_58/Y vdd NAND2X1
XNAND2X1_69 MUX2X1_155/B NAND2X1_65/B gnd NAND2X1_69/Y vdd NAND2X1
XFILL_23_1_1 gnd vdd FILL
XFILL_14_1_1 gnd vdd FILL
XFILL_6_2_1 gnd vdd FILL
XCLKBUF1_1 CLKBUF1_1/A gnd CLKBUF1_1/Y vdd CLKBUF1
XDFFPOSX1_107 MUX2X1_53/A CLKBUF1_2/A OAI21X1_33/Y gnd vdd DFFPOSX1
XDFFPOSX1_129 MUX2X1_11/B CLKBUF1_29/Y OAI21X1_55/Y gnd vdd DFFPOSX1
XDFFPOSX1_118 MUX2X1_124/A CLKBUF1_9/Y OAI21X1_44/Y gnd vdd DFFPOSX1
XINVX8_3 datain[2] gnd INVX8_3/Y vdd INVX8
XFILL_3_0_1 gnd vdd FILL
XBUFX4_56 INVX8_8/Y gnd BUFX4_56/Y vdd BUFX4
XBUFX4_23 INVX8_1/Y gnd BUFX4_23/Y vdd BUFX4
XFILL_19_0_1 gnd vdd FILL
XBUFX4_45 INVX8_4/Y gnd BUFX4_45/Y vdd BUFX4
XBUFX4_12 address[1] gnd BUFX4_12/Y vdd BUFX4
XBUFX4_34 address[0] gnd MUX2X1_8/S vdd BUFX4
XOAI21X1_151 BUFX4_23/Y NAND2X1_173/B OAI21X1_151/C gnd OAI21X1_151/Y vdd OAI21X1
XOAI21X1_184 BUFX4_52/Y OAI21X1_183/B NAND2X1_226/Y gnd DFFPOSX1_2/D vdd OAI21X1
XAOI22X1_5 MUX2X1_27/Y NOR2X1_2/Y AOI22X1_9/C MUX2X1_30/Y gnd AOI22X1_5/Y vdd AOI22X1
XNAND2X1_190 MUX2X1_26/B OAI21X1_174/B gnd OAI21X1_168/C vdd NAND2X1
XNAND2X1_37 MUX2X1_29/A OAI21X1_38/B gnd OAI21X1_32/C vdd NAND2X1
XNAND2X1_48 MUX2X1_76/A NAND2X1_50/B gnd NAND2X1_48/Y vdd NAND2X1
XAOI22X1_13 MUX2X1_75/Y NOR2X1_2/Y AOI22X1_9/C MUX2X1_78/Y gnd AOI22X1_13/Y vdd AOI22X1
XNAND2X1_26 AOI22X1_2/B NOR2X1_33/Y gnd NAND2X1_27/B vdd NAND2X1
XOAI21X1_195 BUFX4_2/Y OAI21X1_193/B NAND2X1_238/Y gnd DFFPOSX1_13/D vdd OAI21X1
XOAI21X1_162 BUFX4_49/Y OAI21X1_162/B OAI21X1_162/C gnd OAI21X1_162/Y vdd OAI21X1
XAOI22X1_24 AOI22X1_24/A AOI22X1_4/B AOI22X1_4/C MUX2X1_144/Y gnd AOI22X1_24/Y vdd
+ AOI22X1
XOAI21X1_173 BUFX4_41/Y OAI21X1_174/B NAND2X1_195/Y gnd OAI21X1_173/Y vdd OAI21X1
XOAI21X1_140 BUFX4_28/Y NAND2X1_160/B NAND2X1_158/Y gnd OAI21X1_140/Y vdd OAI21X1
XNAND2X1_59 MUX2X1_125/B OAI21X1_52/B gnd OAI21X1_52/C vdd NAND2X1
XNAND2X1_15 MUX2X1_152/B OAI21X1_7/B gnd NAND2X1_15/Y vdd NAND2X1
XFILL_19_1 gnd vdd FILL
XCLKBUF1_2 CLKBUF1_2/A gnd CLKBUF1_2/Y vdd CLKBUF1
XMUX2X1_1 MUX2X1_1/A MUX2X1_1/B MUX2X1_1/S gnd MUX2X1_3/B vdd MUX2X1
XDFFPOSX1_108 MUX2X1_77/A CLKBUF1_43/Y OAI21X1_34/Y gnd vdd DFFPOSX1
XDFFPOSX1_119 MUX2X1_148/A CLKBUF1_5/Y OAI21X1_45/Y gnd vdd DFFPOSX1
XBUFX4_57 INVX8_8/Y gnd BUFX4_57/Y vdd BUFX4
XBUFX4_24 INVX8_6/Y gnd BUFX4_24/Y vdd BUFX4
XDFFPOSX1_90 MUX2X1_31/B CLKBUF1_32/A OAI21X1_24/Y gnd vdd DFFPOSX1
XBUFX4_46 INVX8_4/Y gnd BUFX4_46/Y vdd BUFX4
XBUFX4_13 address[1] gnd BUFX4_13/Y vdd BUFX4
XINVX8_4 datain[3] gnd INVX8_4/Y vdd INVX8
XBUFX4_35 address[0] gnd BUFX4_35/Y vdd BUFX4
XFILL_21_2_0 gnd vdd FILL
XFILL_12_2_0 gnd vdd FILL
XFILL_4_3_0 gnd vdd FILL
XFILL_7_1 gnd vdd FILL
XFILL_1_1_0 gnd vdd FILL
XNAND2X1_27 MUX2X1_7/B NAND2X1_27/B gnd OAI21X1_23/C vdd NAND2X1
XOAI21X1_174 BUFX4_55/Y OAI21X1_174/B NAND2X1_196/Y gnd OAI21X1_174/Y vdd OAI21X1
XNAND2X1_191 MUX2X1_50/B OAI21X1_174/B gnd OAI21X1_169/C vdd NAND2X1
XOAI21X1_185 BUFX4_14/Y OAI21X1_183/B OAI21X1_185/C gnd DFFPOSX1_3/D vdd OAI21X1
XNAND2X1_180 MUX2X1_16/B OAI21X1_162/B gnd NAND2X1_180/Y vdd NAND2X1
XNAND2X1_38 MUX2X1_53/A OAI21X1_38/B gnd OAI21X1_33/C vdd NAND2X1
XFILL_17_1_0 gnd vdd FILL
XNAND2X1_16 NAND2X1_16/A OAI21X1_7/B gnd OAI21X1_14/C vdd NAND2X1
XOAI21X1_130 BUFX4_46/Y OAI21X1_134/B NAND2X1_147/Y gnd OAI21X1_130/Y vdd OAI21X1
XOAI21X1_152 BUFX4_50/Y NAND2X1_173/B OAI21X1_152/C gnd OAI21X1_152/Y vdd OAI21X1
XAOI22X1_6 AOI22X1_6/A AOI22X1_2/B AOI22X1_2/C MUX2X1_36/Y gnd AOI22X1_6/Y vdd AOI22X1
XFILL_9_2_0 gnd vdd FILL
XOAI21X1_196 BUFX4_25/Y OAI21X1_193/B OAI21X1_196/C gnd OAI21X1_196/Y vdd OAI21X1
XOAI21X1_163 BUFX4_1/Y OAI21X1_162/B OAI21X1_163/C gnd OAI21X1_163/Y vdd OAI21X1
XNAND2X1_49 MUX2X1_100/A NAND2X1_50/B gnd NAND2X1_49/Y vdd NAND2X1
XOAI21X1_141 BUFX4_44/Y NAND2X1_160/B NAND2X1_159/Y gnd OAI21X1_141/Y vdd OAI21X1
XAOI22X1_14 MUX2X1_81/Y AOI22X1_2/B AOI22X1_2/C MUX2X1_84/Y gnd AOI22X1_14/Y vdd AOI22X1
XAOI22X1_25 MUX2X1_147/Y NOR2X1_2/Y AOI22X1_9/C AOI22X1_25/D gnd AOI22X1_25/Y vdd
+ AOI22X1
XFILL_19_2 gnd vdd FILL
XMUX2X1_2 NOR2X1_3/A MUX2X1_2/B MUX2X1_2/S gnd MUX2X1_3/A vdd MUX2X1
XCLKBUF1_3 CLKBUF1_2/A gnd CLKBUF1_3/Y vdd CLKBUF1
XDFFPOSX1_109 NAND2X1_40/A CLKBUF1_35/Y OAI21X1_35/Y gnd vdd DFFPOSX1
XFILL_6_0_0 gnd vdd FILL
XDFFPOSX1_80 NOR2X1_10/A CLKBUF1_33/Y AOI21X1_8/Y gnd vdd DFFPOSX1
XDFFPOSX1_91 MUX2X1_55/B CLKBUF1_23/A OAI21X1_25/Y gnd vdd DFFPOSX1
XBUFX4_14 INVX8_3/Y gnd BUFX4_14/Y vdd BUFX4
XBUFX4_58 INVX8_8/Y gnd BUFX4_58/Y vdd BUFX4
XBUFX4_47 INVX8_4/Y gnd BUFX4_47/Y vdd BUFX4
XBUFX4_25 INVX8_6/Y gnd BUFX4_25/Y vdd BUFX4
XINVX8_5 datain[4] gnd BUFX4_2/A vdd INVX8
XBUFX4_36 address[0] gnd BUFX4_36/Y vdd BUFX4
XFILL_21_2_1 gnd vdd FILL
XFILL_12_2_1 gnd vdd FILL
XFILL_4_3_1 gnd vdd FILL
XOAI21X1_142 BUFX4_59/Y NAND2X1_160/B OAI21X1_142/C gnd OAI21X1_142/Y vdd OAI21X1
XOAI21X1_175 NAND2X1_198/Y OAI21X1_175/B INVX4_2/Y gnd AOI21X1_25/B vdd OAI21X1
XNAND2X1_28 MUX2X1_31/B NAND2X1_27/B gnd OAI21X1_24/C vdd NAND2X1
XOAI21X1_153 BUFX4_18/Y NAND2X1_173/B OAI21X1_153/C gnd OAI21X1_153/Y vdd OAI21X1
XNAND2X1_181 MUX2X1_40/B OAI21X1_162/B gnd OAI21X1_160/C vdd NAND2X1
XOAI21X1_120 BUFX4_50/Y OAI21X1_126/B NAND2X1_136/Y gnd OAI21X1_120/Y vdd OAI21X1
XOAI21X1_186 BUFX4_45/Y OAI21X1_183/B OAI21X1_186/C gnd DFFPOSX1_4/D vdd OAI21X1
XAOI22X1_7 AOI22X1_7/A AOI22X1_3/B INVX8_9/Y AOI22X1_7/D gnd AOI22X1_7/Y vdd AOI22X1
XNAND2X1_192 MUX2X1_74/B OAI21X1_174/B gnd NAND2X1_192/Y vdd NAND2X1
XNAND2X1_170 AOI22X1_3/B AND2X2_4/B gnd NAND2X1_173/B vdd NAND2X1
XNAND2X1_39 MUX2X1_77/A OAI21X1_38/B gnd NAND2X1_39/Y vdd NAND2X1
XFILL_9_2_1 gnd vdd FILL
XOAI21X1_197 BUFX4_40/Y OAI21X1_193/B OAI21X1_197/C gnd OAI21X1_197/Y vdd OAI21X1
XNAND2X1_17 NOR2X1_33/Y NOR2X1_2/Y gnd OAI21X1_18/B vdd NAND2X1
XOAI21X1_131 BUFX4_4/Y OAI21X1_134/B NAND2X1_148/Y gnd OAI21X1_131/Y vdd OAI21X1
XFILL_1_1_1 gnd vdd FILL
XOAI21X1_164 BUFX4_24/Y OAI21X1_162/B NAND2X1_185/Y gnd OAI21X1_164/Y vdd OAI21X1
XFILL_17_1_1 gnd vdd FILL
XAOI22X1_15 MUX2X1_87/Y AOI22X1_3/B INVX8_9/Y MUX2X1_90/Y gnd AOI22X1_15/Y vdd AOI22X1
XAOI22X1_26 MUX2X1_153/Y AOI22X1_2/B AOI22X1_2/C AOI22X1_26/D gnd AOI22X1_26/Y vdd
+ AOI22X1
XMUX2X1_3 MUX2X1_3/A MUX2X1_3/B BUFX4_7/Y gnd MUX2X1_3/Y vdd MUX2X1
XCLKBUF1_4 CLKBUF1_4/A gnd CLKBUF1_4/Y vdd CLKBUF1
XFILL_6_0_1 gnd vdd FILL
XFILL_24_1 gnd vdd FILL
XBUFX4_59 INVX8_8/Y gnd BUFX4_59/Y vdd BUFX4
XBUFX4_15 INVX8_3/Y gnd BUFX4_15/Y vdd BUFX4
XDFFPOSX1_81 MUX2X1_1/B CLKBUF1_29/Y OAI21X1_15/Y gnd vdd DFFPOSX1
XDFFPOSX1_92 MUX2X1_79/B CLKBUF1_38/Y OAI21X1_26/Y gnd vdd DFFPOSX1
XBUFX4_48 INVX8_4/Y gnd BUFX4_48/Y vdd BUFX4
XBUFX4_26 INVX8_6/Y gnd BUFX4_26/Y vdd BUFX4
XDFFPOSX1_70 MUX2X1_128/B CLKBUF1_10/Y OAI21X1_12/Y gnd vdd DFFPOSX1
XINVX8_6 datain[5] gnd INVX8_6/Y vdd INVX8
XBUFX4_37 address[0] gnd BUFX4_37/Y vdd BUFX4
XDFFPOSX1_260 BUFX2_4/A CLKBUF1_19/Y AOI21X1_28/Y gnd vdd DFFPOSX1
XOAI21X1_121 BUFX4_17/Y OAI21X1_126/B OAI21X1_121/C gnd OAI21X1_121/Y vdd OAI21X1
XOAI21X1_110 BUFX4_59/Y OAI21X1_105/B NAND2X1_124/Y gnd OAI21X1_110/Y vdd OAI21X1
XOAI21X1_143 BUFX4_23/Y NAND2X1_169/B OAI21X1_143/C gnd OAI21X1_143/Y vdd OAI21X1
XOAI21X1_198 BUFX4_57/Y OAI21X1_193/B OAI21X1_198/C gnd DFFPOSX1_16/D vdd OAI21X1
XOAI21X1_176 NAND2X1_201/Y NAND2X1_202/Y INVX4_2/Y gnd AOI21X1_26/B vdd OAI21X1
XAOI22X1_8 MUX2X1_45/Y AOI22X1_4/B AOI22X1_4/C MUX2X1_48/Y gnd AOI22X1_8/Y vdd AOI22X1
XOAI21X1_154 BUFX4_48/Y NAND2X1_173/B NAND2X1_174/Y gnd OAI21X1_154/Y vdd OAI21X1
XOAI21X1_132 BUFX4_27/Y OAI21X1_134/B NAND2X1_149/Y gnd OAI21X1_132/Y vdd OAI21X1
XOAI21X1_187 BUFX4_3/Y OAI21X1_183/B NAND2X1_229/Y gnd DFFPOSX1_5/D vdd OAI21X1
XOAI21X1_165 BUFX4_42/Y OAI21X1_162/B NAND2X1_186/Y gnd OAI21X1_165/Y vdd OAI21X1
XNAND2X1_29 MUX2X1_55/B NAND2X1_27/B gnd NAND2X1_29/Y vdd NAND2X1
XNAND2X1_160 MUX2X1_181/A NAND2X1_160/B gnd OAI21X1_142/C vdd NAND2X1
XNAND2X1_182 MUX2X1_64/B OAI21X1_162/B gnd NAND2X1_182/Y vdd NAND2X1
XNAND2X1_18 MUX2X1_1/B OAI21X1_18/B gnd OAI21X1_15/C vdd NAND2X1
XNAND2X1_171 MUX2X1_14/A NAND2X1_173/B gnd OAI21X1_151/C vdd NAND2X1
XAOI22X1_16 MUX2X1_93/Y AOI22X1_4/B AOI22X1_4/C MUX2X1_96/Y gnd AOI22X1_16/Y vdd AOI22X1
XAOI22X1_27 MUX2X1_159/Y AOI22X1_3/B INVX8_9/Y AOI22X1_27/D gnd AOI22X1_27/Y vdd AOI22X1
XNAND2X1_193 MUX2X1_98/B OAI21X1_174/B gnd NAND2X1_193/Y vdd NAND2X1
XFILL_10_3_0 gnd vdd FILL
XMUX2X1_4 MUX2X1_4/A MUX2X1_4/B MUX2X1_4/S gnd MUX2X1_4/Y vdd MUX2X1
XFILL_17_1 gnd vdd FILL
XCLKBUF1_5 CLKBUF1_7/A gnd CLKBUF1_5/Y vdd CLKBUF1
XDFFPOSX1_82 MUX2X1_25/B CLKBUF1_28/Y OAI21X1_16/Y gnd vdd DFFPOSX1
XDFFPOSX1_60 NAND2X1_2/A CLKBUF1_43/Y OAI21X1_2/Y gnd vdd DFFPOSX1
XINVX8_7 datain[6] gnd INVX8_7/Y vdd INVX8
XDFFPOSX1_93 MUX2X1_103/B CLKBUF1_8/A OAI21X1_27/Y gnd vdd DFFPOSX1
XDFFPOSX1_71 MUX2X1_152/B CLKBUF1_6/Y OAI21X1_13/Y gnd vdd DFFPOSX1
XBUFX4_16 INVX8_3/Y gnd BUFX4_16/Y vdd BUFX4
XFILL_15_2_0 gnd vdd FILL
XBUFX4_49 INVX8_4/Y gnd BUFX4_49/Y vdd BUFX4
XFILL_7_3_0 gnd vdd FILL
XBUFX4_27 INVX8_6/Y gnd BUFX4_27/Y vdd BUFX4
XBUFX4_38 address[0] gnd INVX1_3/A vdd BUFX4
XFILL_21_0_0 gnd vdd FILL
XDFFPOSX1_250 MUX2X1_41/B CLKBUF1_31/A AOI21X1_18/Y gnd vdd DFFPOSX1
XFILL_12_0_0 gnd vdd FILL
XBUFX4_1 BUFX4_2/A gnd BUFX4_1/Y vdd BUFX4
XINVX4_1 enable gnd INVX4_1/Y vdd INVX4
XDFFPOSX1_261 BUFX2_5/A CLKBUF1_14/Y AOI21X1_29/Y gnd vdd DFFPOSX1
XFILL_4_1_0 gnd vdd FILL
XOAI21X1_111 BUFX4_22/Y OAI21X1_118/B OAI21X1_111/C gnd OAI21X1_111/Y vdd OAI21X1
XOAI21X1_177 NAND2X1_204/Y OAI21X1_177/B INVX4_2/Y gnd AOI21X1_27/B vdd OAI21X1
XAOI22X1_9 MUX2X1_51/Y NOR2X1_2/Y AOI22X1_9/C AOI22X1_9/D gnd AOI22X1_9/Y vdd AOI22X1
XOAI21X1_199 BUFX4_19/Y OAI21X1_201/B NAND2X1_244/Y gnd DFFPOSX1_17/D vdd OAI21X1
XOAI21X1_122 BUFX4_46/Y OAI21X1_126/B NAND2X1_138/Y gnd OAI21X1_122/Y vdd OAI21X1
XOAI21X1_144 BUFX4_53/Y NAND2X1_169/B NAND2X1_163/Y gnd OAI21X1_144/Y vdd OAI21X1
XOAI21X1_188 BUFX4_28/Y OAI21X1_183/B NAND2X1_230/Y gnd DFFPOSX1_6/D vdd OAI21X1
XOAI21X1_133 BUFX4_44/Y OAI21X1_134/B OAI21X1_133/C gnd OAI21X1_133/Y vdd OAI21X1
XOAI21X1_155 BUFX4_5/Y NAND2X1_173/B OAI21X1_155/C gnd OAI21X1_155/Y vdd OAI21X1
XOAI21X1_100 BUFX4_28/Y OAI21X1_97/B NAND2X1_113/Y gnd OAI21X1_100/Y vdd OAI21X1
XOAI21X1_166 BUFX4_55/Y OAI21X1_162/B OAI21X1_166/C gnd OAI21X1_166/Y vdd OAI21X1
XNAND2X1_183 MUX2X1_88/B OAI21X1_162/B gnd OAI21X1_162/C vdd NAND2X1
XNAND2X1_19 MUX2X1_25/B OAI21X1_18/B gnd NAND2X1_19/Y vdd NAND2X1
XNAND2X1_172 MUX2X1_38/A NAND2X1_173/B gnd OAI21X1_152/C vdd NAND2X1
XAOI22X1_28 AOI22X1_28/A AOI22X1_4/B AOI22X1_4/C MUX2X1_168/Y gnd AOI22X1_28/Y vdd
+ AOI22X1
XNAND2X1_161 AOI22X1_3/B NOR2X1_1/Y gnd NAND2X1_169/B vdd NAND2X1
XNAND2X1_150 MUX2X1_157/B OAI21X1_134/B gnd OAI21X1_133/C vdd NAND2X1
XNAND2X1_194 MUX2X1_122/B OAI21X1_174/B gnd OAI21X1_172/C vdd NAND2X1
XAOI22X1_17 MUX2X1_99/Y NOR2X1_2/Y AOI22X1_9/C MUX2X1_102/Y gnd AOI22X1_17/Y vdd AOI22X1
XFILL_5_1 gnd vdd FILL
XOAI21X1_1 BUFX4_15/Y NAND2X1_1/B NAND2X1_1/Y gnd OAI21X1_1/Y vdd OAI21X1
XFILL_10_3_1 gnd vdd FILL
XFILL_9_0_0 gnd vdd FILL
XMUX2X1_5 MUX2X1_5/A MUX2X1_5/B MUX2X1_5/S gnd MUX2X1_6/A vdd MUX2X1
XFILL_17_2 gnd vdd FILL
XCLKBUF1_6 CLKBUF1_6/A gnd CLKBUF1_6/Y vdd CLKBUF1
XINVX8_8 datain[7] gnd INVX8_8/Y vdd INVX8
XBUFX4_17 INVX8_3/Y gnd BUFX4_17/Y vdd BUFX4
XDFFPOSX1_72 NAND2X1_16/A CLKBUF1_3/Y OAI21X1_14/Y gnd vdd DFFPOSX1
XFILL_15_2_1 gnd vdd FILL
XDFFPOSX1_83 MUX2X1_49/B CLKBUF1_24/Y OAI21X1_17/Y gnd vdd DFFPOSX1
XDFFPOSX1_50 MUX2X1_32/A CLKBUF1_28/Y DFFPOSX1_50/D gnd vdd DFFPOSX1
XFILL_7_3_1 gnd vdd FILL
XDFFPOSX1_61 NAND2X1_3/A CLKBUF1_6/A OAI21X1_3/Y gnd vdd DFFPOSX1
XDFFPOSX1_94 MUX2X1_127/B CLKBUF1_9/A OAI21X1_28/Y gnd vdd DFFPOSX1
XBUFX4_28 INVX8_6/Y gnd BUFX4_28/Y vdd BUFX4
XBUFX4_39 address[0] gnd BUFX4_39/Y vdd BUFX4
XDFFPOSX1_240 MUX2X1_184/B CLKBUF1_33/Y OAI21X1_166/Y gnd vdd DFFPOSX1
XFILL_21_0_1 gnd vdd FILL
XDFFPOSX1_251 NOR2X1_23/A CLKBUF1_23/A AOI21X1_19/Y gnd vdd DFFPOSX1
XDFFPOSX1_262 BUFX2_6/A CLKBUF1_10/Y AOI21X1_30/Y gnd vdd DFFPOSX1
XBUFX4_2 BUFX4_2/A gnd BUFX4_2/Y vdd BUFX4
XFILL_4_1_1 gnd vdd FILL
XINVX4_2 r_w gnd INVX4_2/Y vdd INVX4
XFILL_12_0_1 gnd vdd FILL
XOAI21X1_112 BUFX4_53/Y OAI21X1_118/B NAND2X1_127/Y gnd OAI21X1_112/Y vdd OAI21X1
XOAI21X1_101 BUFX4_43/Y OAI21X1_97/B NAND2X1_114/Y gnd OAI21X1_101/Y vdd OAI21X1
XOAI21X1_134 BUFX4_55/Y OAI21X1_134/B NAND2X1_151/Y gnd OAI21X1_134/Y vdd OAI21X1
XAOI22X1_29 AOI22X1_29/A NOR2X1_2/Y AOI22X1_9/C AOI22X1_29/D gnd AOI22X1_29/Y vdd
+ AOI22X1
XOAI21X1_167 BUFX4_23/Y OAI21X1_174/B NAND2X1_189/Y gnd OAI21X1_167/Y vdd OAI21X1
XOAI21X1_145 BUFX4_18/Y NAND2X1_169/B NAND2X1_164/Y gnd OAI21X1_145/Y vdd OAI21X1
XNAND2X1_173 MUX2X1_62/A NAND2X1_173/B gnd OAI21X1_153/C vdd NAND2X1
XNAND2X1_162 MUX2X1_14/B NAND2X1_169/B gnd OAI21X1_143/C vdd NAND2X1
XOAI21X1_178 NAND2X1_207/Y OAI21X1_178/B INVX4_2/Y gnd AOI21X1_28/B vdd OAI21X1
XNAND2X1_184 MUX2X1_112/B OAI21X1_162/B gnd OAI21X1_163/C vdd NAND2X1
XOAI21X1_156 BUFX4_27/Y NAND2X1_173/B OAI21X1_156/C gnd OAI21X1_156/Y vdd OAI21X1
XOAI21X1_189 BUFX4_41/Y OAI21X1_183/B OAI21X1_189/C gnd DFFPOSX1_7/D vdd OAI21X1
XNAND2X1_140 MUX2X1_143/A OAI21X1_126/B gnd OAI21X1_124/C vdd NAND2X1
XNAND2X1_195 MUX2X1_146/B OAI21X1_174/B gnd NAND2X1_195/Y vdd NAND2X1
XOAI21X1_123 BUFX4_4/Y OAI21X1_126/B OAI21X1_123/C gnd OAI21X1_123/Y vdd OAI21X1
XNAND2X1_151 MUX2X1_181/B OAI21X1_134/B gnd NAND2X1_151/Y vdd NAND2X1
XAOI22X1_18 MUX2X1_105/Y AOI22X1_2/B AOI22X1_2/C MUX2X1_108/Y gnd AOI22X1_18/Y vdd
+ AOI22X1
XMUX2X1_190 MUX2X1_190/A MUX2X1_190/B MUX2X1_8/S gnd MUX2X1_192/B vdd MUX2X1
XFILL_5_2 gnd vdd FILL
XAOI21X1_40 BUFX4_56/Y AND2X2_4/Y NOR2X1_42/Y gnd AOI21X1_40/Y vdd AOI21X1
XOAI21X1_2 BUFX4_47/Y NAND2X1_1/B NAND2X1_2/Y gnd OAI21X1_2/Y vdd OAI21X1
XFILL_9_0_1 gnd vdd FILL
XMUX2X1_6 MUX2X1_6/A MUX2X1_4/Y BUFX4_8/Y gnd MUX2X1_6/Y vdd MUX2X1
XCLKBUF1_7 CLKBUF1_7/A gnd CLKBUF1_7/Y vdd CLKBUF1
XFILL_17_3 gnd vdd FILL
XDFFPOSX1_84 MUX2X1_73/B CLKBUF1_20/Y OAI21X1_18/Y gnd vdd DFFPOSX1
XDFFPOSX1_40 MUX2X1_188/A CLKBUF1_1/Y DFFPOSX1_40/D gnd vdd DFFPOSX1
XDFFPOSX1_73 NOR2X1_3/A CLKBUF1_32/A AOI21X1_1/Y gnd vdd DFFPOSX1
XBUFX4_18 INVX8_3/Y gnd BUFX4_18/Y vdd BUFX4
XDFFPOSX1_51 MUX2X1_56/A CLKBUF1_24/Y DFFPOSX1_51/D gnd vdd DFFPOSX1
XINVX8_9 OR2X2_1/Y gnd INVX8_9/Y vdd INVX8
XDFFPOSX1_62 NAND2X1_4/A CLKBUF1_43/Y OAI21X1_4/Y gnd vdd DFFPOSX1
XDFFPOSX1_95 NAND2X1_33/A CLKBUF1_6/A OAI21X1_29/Y gnd vdd DFFPOSX1
XBUFX4_29 address[0] gnd MUX2X1_1/S vdd BUFX4
XFILL_22_1 gnd vdd FILL
XDFFPOSX1_241 MUX2X1_2/B CLKBUF1_31/Y OAI21X1_167/Y gnd vdd DFFPOSX1
XDFFPOSX1_230 MUX2X1_134/A CLKBUF1_12/Y OAI21X1_156/Y gnd vdd DFFPOSX1
XBUFX4_3 BUFX4_2/A gnd BUFX4_3/Y vdd BUFX4
XDFFPOSX1_263 BUFX2_7/A CLKBUF1_6/Y AOI21X1_31/Y gnd vdd DFFPOSX1
XDFFPOSX1_252 NOR2X1_24/A CLKBUF1_9/A AOI21X1_20/Y gnd vdd DFFPOSX1
XFILL_22_3_0 gnd vdd FILL
XNAND2X1_196 MUX2X1_170/B OAI21X1_174/B gnd NAND2X1_196/Y vdd NAND2X1
XOAI21X1_113 BUFX4_17/Y OAI21X1_118/B OAI21X1_113/C gnd OAI21X1_113/Y vdd OAI21X1
XOAI21X1_102 BUFX4_56/Y OAI21X1_97/B NAND2X1_115/Y gnd OAI21X1_102/Y vdd OAI21X1
XOAI21X1_135 BUFX4_23/Y NAND2X1_160/B OAI21X1_135/C gnd OAI21X1_135/Y vdd OAI21X1
XFILL_13_3_0 gnd vdd FILL
XOAI21X1_168 BUFX4_52/Y OAI21X1_174/B OAI21X1_168/C gnd OAI21X1_168/Y vdd OAI21X1
XOAI21X1_146 BUFX4_48/Y NAND2X1_169/B OAI21X1_146/C gnd OAI21X1_146/Y vdd OAI21X1
XNAND2X1_174 MUX2X1_86/A NAND2X1_173/B gnd NAND2X1_174/Y vdd NAND2X1
XNAND2X1_163 MUX2X1_38/B NAND2X1_169/B gnd NAND2X1_163/Y vdd NAND2X1
XNAND2X1_152 AOI22X1_3/B AND2X2_2/B gnd NAND2X1_160/B vdd NAND2X1
XNAND2X1_141 MUX2X1_167/A OAI21X1_126/B gnd NAND2X1_141/Y vdd NAND2X1
XOAI21X1_157 BUFX4_44/Y NAND2X1_173/B OAI21X1_157/C gnd OAI21X1_157/Y vdd OAI21X1
XOAI21X1_124 BUFX4_27/Y OAI21X1_126/B OAI21X1_124/C gnd OAI21X1_124/Y vdd OAI21X1
XNAND2X1_130 MUX2X1_119/B OAI21X1_118/B gnd OAI21X1_115/C vdd NAND2X1
XNAND2X1_185 MUX2X1_136/B OAI21X1_162/B gnd NAND2X1_185/Y vdd NAND2X1
XOAI21X1_179 NAND2X1_210/Y OAI21X1_179/B INVX4_2/Y gnd AOI21X1_29/B vdd OAI21X1
XMUX2X1_191 MUX2X1_191/A MUX2X1_191/B BUFX4_35/Y gnd MUX2X1_192/A vdd MUX2X1
XMUX2X1_180 MUX2X1_180/A MUX2X1_178/Y BUFX4_10/Y gnd MUX2X1_180/Y vdd MUX2X1
XAOI22X1_19 MUX2X1_111/Y AOI22X1_3/B INVX8_9/Y MUX2X1_114/Y gnd AOI22X1_19/Y vdd AOI22X1
XAOI21X1_30 AOI21X1_30/A AOI21X1_30/B INVX4_1/Y gnd AOI21X1_30/Y vdd AOI21X1
XOAI21X1_3 BUFX4_5/Y NAND2X1_1/B NAND2X1_3/Y gnd OAI21X1_3/Y vdd OAI21X1
XMUX2X1_7 MUX2X1_7/A MUX2X1_7/B MUX2X1_7/S gnd MUX2X1_9/B vdd MUX2X1
XFILL_10_1_0 gnd vdd FILL
XCLKBUF1_8 CLKBUF1_8/A gnd CLKBUF1_8/Y vdd CLKBUF1
XFILL_2_2_0 gnd vdd FILL
XFILL_18_2_0 gnd vdd FILL
XDFFPOSX1_41 NOR2X1_35/A CLKBUF1_32/A AOI21X1_33/Y gnd vdd DFFPOSX1
XBUFX4_19 INVX8_1/Y gnd BUFX4_19/Y vdd BUFX4
XDFFPOSX1_96 MUX2X1_175/B CLKBUF1_43/Y OAI21X1_30/Y gnd vdd DFFPOSX1
XDFFPOSX1_74 NOR2X1_4/A CLKBUF1_31/A AOI21X1_2/Y gnd vdd DFFPOSX1
XDFFPOSX1_52 MUX2X1_80/A CLKBUF1_17/Y OAI21X1_226/Y gnd vdd DFFPOSX1
XDFFPOSX1_30 MUX2X1_130/B CLKBUF1_7/A DFFPOSX1_30/D gnd vdd DFFPOSX1
XDFFPOSX1_63 NAND2X1_5/A CLKBUF1_7/A OAI21X1_5/Y gnd vdd DFFPOSX1
XDFFPOSX1_85 MUX2X1_97/B CLKBUF1_14/Y OAI21X1_19/Y gnd vdd DFFPOSX1
XFILL_22_2 gnd vdd FILL
XFILL_15_1 gnd vdd FILL
XFILL_15_0_0 gnd vdd FILL
XFILL_7_1_0 gnd vdd FILL
XDFFPOSX1_264 BUFX2_8/A CLKBUF1_1/Y AOI21X1_32/Y gnd vdd DFFPOSX1
XDFFPOSX1_242 MUX2X1_26/B CLKBUF1_28/Y OAI21X1_168/Y gnd vdd DFFPOSX1
XDFFPOSX1_220 MUX2X1_86/B CLKBUF1_43/Y OAI21X1_146/Y gnd vdd DFFPOSX1
XDFFPOSX1_231 MUX2X1_158/A CLKBUF1_7/Y OAI21X1_157/Y gnd vdd DFFPOSX1
XBUFX4_4 BUFX4_2/A gnd BUFX4_4/Y vdd BUFX4
XDFFPOSX1_253 NOR2X1_25/A CLKBUF1_6/A AOI21X1_21/Y gnd vdd DFFPOSX1
XOAI21X1_103 BUFX4_20/Y OAI21X1_105/B NAND2X1_117/Y gnd OAI21X1_103/Y vdd OAI21X1
XFILL_22_3_1 gnd vdd FILL
XNAND2X1_142 MUX2X1_191/A OAI21X1_126/B gnd NAND2X1_142/Y vdd NAND2X1
XOAI21X1_169 BUFX4_17/Y OAI21X1_174/B OAI21X1_169/C gnd OAI21X1_169/Y vdd OAI21X1
XBUFX2_1 BUFX2_1/A gnd dataout[0] vdd BUFX2
XNAND2X1_197 r_w BUFX2_1/A gnd AOI21X1_25/A vdd NAND2X1
XOAI21X1_158 BUFX4_58/Y NAND2X1_173/B OAI21X1_158/C gnd OAI21X1_158/Y vdd OAI21X1
XNAND2X1_164 MUX2X1_62/B NAND2X1_169/B gnd NAND2X1_164/Y vdd NAND2X1
XNAND2X1_153 MUX2X1_13/A NAND2X1_160/B gnd OAI21X1_135/C vdd NAND2X1
XNAND2X1_120 MUX2X1_94/A OAI21X1_105/B gnd NAND2X1_120/Y vdd NAND2X1
XOAI21X1_114 BUFX4_46/Y OAI21X1_118/B NAND2X1_129/Y gnd OAI21X1_114/Y vdd OAI21X1
XOAI21X1_136 BUFX4_53/Y NAND2X1_160/B OAI21X1_136/C gnd OAI21X1_136/Y vdd OAI21X1
XOAI21X1_125 BUFX4_44/Y OAI21X1_126/B NAND2X1_141/Y gnd OAI21X1_125/Y vdd OAI21X1
XOAI21X1_147 BUFX4_5/Y NAND2X1_169/B NAND2X1_166/Y gnd OAI21X1_147/Y vdd OAI21X1
XNAND2X1_131 MUX2X1_143/B OAI21X1_118/B gnd OAI21X1_116/C vdd NAND2X1
XNAND2X1_175 MUX2X1_110/A NAND2X1_173/B gnd OAI21X1_155/C vdd NAND2X1
XNAND2X1_186 MUX2X1_160/B OAI21X1_162/B gnd NAND2X1_186/Y vdd NAND2X1
XAOI21X1_1 BUFX4_20/Y NOR2X1_5/B NOR2X1_3/Y gnd AOI21X1_1/Y vdd AOI21X1
XMUX2X1_170 NOR2X1_10/A MUX2X1_170/B MUX2X1_5/S gnd MUX2X1_171/A vdd MUX2X1
XMUX2X1_192 MUX2X1_192/A MUX2X1_192/B BUFX4_6/Y gnd AOI22X1_32/D vdd MUX2X1
XMUX2X1_181 MUX2X1_181/A MUX2X1_181/B BUFX4_39/Y gnd MUX2X1_183/B vdd MUX2X1
XINVX2_1 address[2] gnd OR2X2_1/B vdd INVX2
XFILL_13_3_1 gnd vdd FILL