* NGSPICE file created from ram32_sdram_2split.ext - technology: scmos

* Black-box entry subcircuit for FILL abstract view
.subckt FILL gnd vdd
.ends

* Black-box entry subcircuit for MUX2X1 abstract view
.subckt MUX2X1 A B S gnd Y vdd
.ends

* Black-box entry subcircuit for NAND2X1 abstract view
.subckt NAND2X1 A B gnd Y vdd
.ends

* Black-box entry subcircuit for AOI22X1 abstract view
.subckt AOI22X1 A B C D gnd Y vdd
.ends

* Black-box entry subcircuit for OAI21X1 abstract view
.subckt OAI21X1 A B C gnd Y vdd
.ends

* Black-box entry subcircuit for DFFPOSX1 abstract view
.subckt DFFPOSX1 Q CLK D gnd vdd
.ends

* Black-box entry subcircuit for BUFX4 abstract view
.subckt BUFX4 A gnd Y vdd
.ends

* Black-box entry subcircuit for INVX1 abstract view
.subckt INVX1 A gnd Y vdd
.ends

* Black-box entry subcircuit for INVX8 abstract view
.subckt INVX8 A gnd Y vdd
.ends

* Black-box entry subcircuit for CLKBUF1 abstract view
.subckt CLKBUF1 A gnd Y vdd
.ends

* Black-box entry subcircuit for NAND3X1 abstract view
.subckt NAND3X1 A B C gnd Y vdd
.ends

* Black-box entry subcircuit for AOI21X1 abstract view
.subckt AOI21X1 A B C gnd Y vdd
.ends

* Black-box entry subcircuit for INVX4 abstract view
.subckt INVX4 A gnd Y vdd
.ends

* Black-box entry subcircuit for BUFX2 abstract view
.subckt BUFX2 A gnd Y vdd
.ends

* Black-box entry subcircuit for INVX2 abstract view
.subckt INVX2 A gnd Y vdd
.ends

* Black-box entry subcircuit for NOR2X1 abstract view
.subckt NOR2X1 A B gnd Y vdd
.ends

* Black-box entry subcircuit for AND2X2 abstract view
.subckt AND2X2 A B gnd Y vdd
.ends

* Black-box entry subcircuit for OR2X2 abstract view
.subckt OR2X2 A B gnd Y vdd
.ends

.subckt ram32_sdram_2split vdd gnd en rw clk ras cas datain[0] datain[1] datain[2]
+ datain[3] datain[4] datain[5] datain[6] datain[7] address[0] address[1] address[2]
+ address[3] address[4] dataout[0] dataout[1] dataout[2] dataout[3] dataout[4] dataout[5]
+ dataout[6] dataout[7]
XFILL_23_3_0 gnd vdd FILL
XMUX2X1_17 INVX1_17/Y BUFX4_57/Y MUX2X1_17/S gnd MUX2X1_17/Y vdd MUX2X1
XFILL_14_3_0 gnd vdd FILL
XMUX2X1_28 INVX1_28/Y BUFX4_27/Y MUX2X1_27/S gnd MUX2X1_28/Y vdd MUX2X1
XMUX2X1_39 INVX1_39/Y BUFX4_22/Y MUX2X1_39/S gnd MUX2X1_39/Y vdd MUX2X1
XNAND2X1_43 MUX2X1_178/A NAND3X1_4/Y gnd OAI21X1_38/C vdd NAND2X1
XNAND2X1_10 MUX2X1_76/A OAI21X1_9/B gnd OAI21X1_9/C vdd NAND2X1
XNAND2X1_32 NAND2X1_32/A OAI21X1_25/B gnd NAND2X1_32/Y vdd NAND2X1
XAOI22X1_30 MUX2X1_233/Y AND2X2_3/A AND2X2_2/B AOI22X1_30/D gnd AOI22X1_30/Y vdd AOI22X1
XNAND2X1_54 AND2X2_2/B NOR2X1_1/Y gnd NAND2X1_56/B vdd NAND2X1
XNAND2X1_87 MUX2X1_153/B NAND2X1_88/B gnd NAND2X1_87/Y vdd NAND2X1
XNAND2X1_98 NAND2X1_98/A NAND3X1_7/Y gnd NAND2X1_98/Y vdd NAND2X1
XNAND2X1_76 MUX2X1_169/A NAND3X1_6/Y gnd OAI21X1_69/C vdd NAND2X1
XNAND2X1_65 MUX2X1_88/A NAND2X1_64/B gnd OAI21X1_58/C vdd NAND2X1
XNAND2X1_21 MUX2X1_99/B NAND3X1_3/Y gnd NAND2X1_21/Y vdd NAND2X1
XFILL_20_1_0 gnd vdd FILL
XOAI21X1_19 BUFX4_10/Y NAND3X1_3/Y NAND2X1_22/Y gnd OAI21X1_19/Y vdd OAI21X1
XFILL_19_2_0 gnd vdd FILL
XFILL_11_1_0 gnd vdd FILL
XFILL_3_2_0 gnd vdd FILL
XDFFPOSX1_147 MUX2X1_232/A CLKBUF1_43/Y OAI21X1_64/Y gnd vdd DFFPOSX1
XDFFPOSX1_158 INVX1_19/A CLKBUF1_5/A MUX2X1_19/Y gnd vdd DFFPOSX1
XDFFPOSX1_169 INVX1_30/A CLKBUF1_19/Y MUX2X1_30/Y gnd vdd DFFPOSX1
XDFFPOSX1_103 MUX2X1_139/A CLKBUF1_25/Y OAI21X1_28/Y gnd vdd DFFPOSX1
XDFFPOSX1_136 NAND2X1_59/A CLKBUF1_21/Y OAI21X1_53/Y gnd vdd DFFPOSX1
XDFFPOSX1_114 MUX2X1_202/A CLKBUF1_46/Y OAI21X1_39/Y gnd vdd DFFPOSX1
XDFFPOSX1_125 MUX2X1_90/A CLKBUF1_4/Y AOI21X1_10/Y gnd vdd DFFPOSX1
XMUX2X1_245 MUX2X1_245/A MUX2X1_245/B BUFX4_18/Y gnd AOI22X1_32/A vdd MUX2X1
XMUX2X1_234 NOR2X1_19/A MUX2X1_234/B BUFX4_38/Y gnd MUX2X1_236/B vdd MUX2X1
XMUX2X1_256 INVX1_66/Y BUFX4_44/Y MUX2X1_249/S gnd MUX2X1_256/Y vdd MUX2X1
XMUX2X1_223 NAND2X1_98/A MUX2X1_223/B BUFX4_31/Y gnd MUX2X1_223/Y vdd MUX2X1
XMUX2X1_201 MUX2X1_201/A NAND2X1_89/A BUFX4_38/Y gnd MUX2X1_201/Y vdd MUX2X1
XMUX2X1_212 MUX2X1_212/A MUX2X1_210/Y BUFX4_15/Y gnd AOI22X1_26/D vdd MUX2X1
XBUFX4_41 INVX8_10/Y gnd BUFX4_41/Y vdd BUFX4
XBUFX4_30 BUFX4_34/A gnd BUFX4_30/Y vdd BUFX4
XBUFX4_52 INVX8_4/Y gnd BUFX4_52/Y vdd BUFX4
XINVX1_6 INVX1_6/A gnd INVX1_6/Y vdd INVX1
XINVX8_11 INVX8_11/A gnd INVX8_11/Y vdd INVX8
XFILL_0_0_0 gnd vdd FILL
XFILL_16_0_0 gnd vdd FILL
XFILL_8_1_0 gnd vdd FILL
XFILL_23_3_1 gnd vdd FILL
XMUX2X1_29 INVX1_29/Y MUX2X1_5/B MUX2X1_27/S gnd MUX2X1_29/Y vdd MUX2X1
XMUX2X1_18 INVX1_18/Y MUX2X1_2/B MUX2X1_17/S gnd MUX2X1_18/Y vdd MUX2X1
XNAND2X1_88 NAND2X1_88/A NAND2X1_88/B gnd OAI21X1_78/C vdd NAND2X1
XNAND2X1_22 MUX2X1_123/B NAND3X1_3/Y gnd NAND2X1_22/Y vdd NAND2X1
XNAND2X1_66 MUX2X1_112/A NAND2X1_64/B gnd OAI21X1_59/C vdd NAND2X1
XNAND2X1_77 MUX2X1_193/A NAND3X1_6/Y gnd NAND2X1_77/Y vdd NAND2X1
XAOI22X1_1 AOI22X1_1/A INVX8_11/Y INVX8_1/Y AOI22X1_1/D gnd AOI22X1_1/Y vdd AOI22X1
XNAND2X1_55 MUX2X1_66/B NAND2X1_56/B gnd OAI21X1_49/C vdd NAND2X1
XFILL_14_3_1 gnd vdd FILL
XNAND2X1_99 MUX2X1_247/A NAND3X1_7/Y gnd NAND2X1_99/Y vdd NAND2X1
XNAND2X1_33 MUX2X1_139/A OAI21X1_25/B gnd OAI21X1_28/C vdd NAND2X1
XNAND2X1_44 MUX2X1_202/A NAND3X1_4/Y gnd OAI21X1_39/C vdd NAND2X1
XNAND2X1_11 MUX2X1_100/A OAI21X1_9/B gnd OAI21X1_10/C vdd NAND2X1
XAOI22X1_31 AOI22X1_31/A INVX1_49/A INVX8_2/Y MUX2X1_242/Y gnd AOI22X1_31/Y vdd AOI22X1
XAOI22X1_20 AOI22X1_20/A AND2X2_4/B AND2X2_1/B MUX2X1_176/Y gnd AOI22X1_20/Y vdd AOI22X1
XFILL_20_1_1 gnd vdd FILL
XFILL_11_1_1 gnd vdd FILL
XFILL_3_2_1 gnd vdd FILL
XDFFPOSX1_137 MUX2X1_186/B CLKBUF1_17/Y OAI21X1_54/Y gnd vdd DFFPOSX1
XFILL_19_2_1 gnd vdd FILL
XDFFPOSX1_115 MUX2X1_226/A CLKBUF1_44/Y OAI21X1_40/Y gnd vdd DFFPOSX1
XDFFPOSX1_126 NOR2X1_14/A CLKBUF1_5/A AOI21X1_11/Y gnd vdd DFFPOSX1
XDFFPOSX1_148 MUX2X1_73/A CLKBUF1_37/Y OAI21X1_65/Y gnd vdd DFFPOSX1
XDFFPOSX1_104 MUX2X1_163/A CLKBUF1_21/Y OAI21X1_29/Y gnd vdd DFFPOSX1
XDFFPOSX1_159 INVX1_20/A CLKBUF1_2/A MUX2X1_20/Y gnd vdd DFFPOSX1
XMUX2X1_235 MUX2X1_235/A MUX2X1_235/B BUFX4_39/Y gnd MUX2X1_235/Y vdd MUX2X1
XMUX2X1_246 NOR2X1_9/A NAND2X1_8/A BUFX4_35/Y gnd MUX2X1_248/B vdd MUX2X1
XMUX2X1_213 INVX1_47/A INVX1_39/A BUFX4_35/Y gnd MUX2X1_213/Y vdd MUX2X1
XMUX2X1_224 MUX2X1_223/Y MUX2X1_222/Y BUFX4_11/Y gnd MUX2X1_224/Y vdd MUX2X1
XMUX2X1_202 MUX2X1_202/A MUX2X1_202/B BUFX4_39/Y gnd MUX2X1_202/Y vdd MUX2X1
XBUFX4_42 INVX8_10/Y gnd BUFX4_42/Y vdd BUFX4
XBUFX4_31 BUFX4_34/A gnd BUFX4_31/Y vdd BUFX4
XBUFX4_20 INVX8_9/Y gnd MUX2X1_7/B vdd BUFX4
XBUFX4_53 INVX8_4/Y gnd MUX2X1_2/B vdd BUFX4
XFILL_10_1 gnd vdd FILL
XFILL_0_0_1 gnd vdd FILL
XFILL_16_0_1 gnd vdd FILL
XFILL_8_1_1 gnd vdd FILL
XINVX1_7 INVX1_7/A gnd INVX1_7/Y vdd INVX1
XNAND2X1_12 MUX2X1_124/A OAI21X1_9/B gnd NAND2X1_12/Y vdd NAND2X1
XNAND2X1_56 MUX2X1_90/B NAND2X1_56/B gnd OAI21X1_50/C vdd NAND2X1
XNAND2X1_45 MUX2X1_226/A NAND3X1_4/Y gnd NAND2X1_45/Y vdd NAND2X1
XAOI22X1_2 MUX2X1_65/Y AND2X2_3/A AND2X2_2/B AOI22X1_2/D gnd AOI22X1_2/Y vdd AOI22X1
XMUX2X1_19 INVX1_19/Y BUFX4_6/Y MUX2X1_17/S gnd MUX2X1_19/Y vdd MUX2X1
XNAND2X1_67 MUX2X1_136/A NAND2X1_64/B gnd NAND2X1_67/Y vdd NAND2X1
XNAND2X1_23 NAND2X1_23/A NAND3X1_3/Y gnd OAI21X1_20/C vdd NAND2X1
XNAND2X1_78 MUX2X1_217/A NAND3X1_6/Y gnd NAND2X1_78/Y vdd NAND2X1
XNAND2X1_89 NAND2X1_89/A NAND2X1_88/B gnd OAI21X1_79/C vdd NAND2X1
XNAND2X1_34 MUX2X1_163/A OAI21X1_25/B gnd NAND2X1_34/Y vdd NAND2X1
XAOI22X1_21 AOI22X1_21/A INVX8_11/Y INVX8_1/Y AOI22X1_21/D gnd AOI22X1_21/Y vdd AOI22X1
XAOI22X1_32 AOI22X1_32/A AND2X2_4/B AND2X2_1/B MUX2X1_248/Y gnd AOI22X1_32/Y vdd AOI22X1
XAOI22X1_10 AOI22X1_10/A AND2X2_3/A AND2X2_2/B AOI22X1_10/D gnd AOI22X1_10/Y vdd AOI22X1
XDFFPOSX1_116 MUX2X1_67/B CLKBUF1_40/Y OAI21X1_41/Y gnd vdd DFFPOSX1
XDFFPOSX1_105 MUX2X1_187/A CLKBUF1_18/Y OAI21X1_30/Y gnd vdd DFFPOSX1
XDFFPOSX1_127 NOR2X1_15/A CLKBUF1_5/A AOI21X1_12/Y gnd vdd DFFPOSX1
XDFFPOSX1_138 MUX2X1_210/B CLKBUF1_16/Y OAI21X1_55/Y gnd vdd DFFPOSX1
XDFFPOSX1_149 MUX2X1_97/A CLKBUF1_35/Y OAI21X1_66/Y gnd vdd DFFPOSX1
XMUX2X1_225 MUX2X1_225/A NAND2X1_90/A BUFX4_32/Y gnd MUX2X1_227/B vdd MUX2X1
XMUX2X1_236 MUX2X1_235/Y MUX2X1_236/B BUFX4_15/Y gnd AOI22X1_30/D vdd MUX2X1
XMUX2X1_247 MUX2X1_247/A MUX2X1_247/B BUFX4_36/Y gnd MUX2X1_247/Y vdd MUX2X1
XMUX2X1_214 INVX1_56/A NOR2X1_38/A BUFX4_36/Y gnd MUX2X1_215/A vdd MUX2X1
XMUX2X1_203 MUX2X1_202/Y MUX2X1_201/Y BUFX4_12/Y gnd AOI22X1_25/A vdd MUX2X1
XBUFX4_43 INVX8_10/Y gnd BUFX4_43/Y vdd BUFX4
XBUFX4_10 INVX8_5/Y gnd BUFX4_10/Y vdd BUFX4
XINVX8_1 INVX8_1/A gnd INVX8_1/Y vdd INVX8
XBUFX4_32 BUFX4_34/A gnd BUFX4_32/Y vdd BUFX4
XBUFX4_21 INVX8_9/Y gnd BUFX4_21/Y vdd BUFX4
XBUFX4_54 INVX8_4/Y gnd BUFX4_54/Y vdd BUFX4
XINVX1_8 INVX1_8/A gnd INVX1_8/Y vdd INVX1
XFILL_1_3_0 gnd vdd FILL
XFILL_17_3_0 gnd vdd FILL
XOAI21X1_160 BUFX4_40/Y NAND3X1_11/Y OAI21X1_160/C gnd DFFPOSX1_32/D vdd OAI21X1
XAOI22X1_3 AOI22X1_3/A INVX1_49/A INVX8_2/Y MUX2X1_74/Y gnd AOI22X1_3/Y vdd AOI22X1
XNAND2X1_46 MUX2X1_67/B NAND3X1_5/Y gnd NAND2X1_46/Y vdd NAND2X1
XNAND2X1_79 MUX2X1_241/A NAND3X1_6/Y gnd NAND2X1_79/Y vdd NAND2X1
XNAND2X1_57 MUX2X1_114/B NAND2X1_56/B gnd NAND2X1_57/Y vdd NAND2X1
XAOI22X1_22 MUX2X1_185/Y AND2X2_3/A AND2X2_2/B AOI22X1_22/D gnd AOI22X1_22/Y vdd AOI22X1
XNAND2X1_35 MUX2X1_187/A OAI21X1_25/B gnd NAND2X1_35/Y vdd NAND2X1
XAOI22X1_11 MUX2X1_119/Y INVX1_49/A INVX8_2/Y AOI22X1_11/D gnd AOI22X1_11/Y vdd AOI22X1
XNAND2X1_13 MUX2X1_148/A OAI21X1_9/B gnd NAND2X1_13/Y vdd NAND2X1
XNAND2X1_68 MUX2X1_160/A NAND2X1_64/B gnd OAI21X1_61/C vdd NAND2X1
XNAND2X1_24 MUX2X1_171/B NAND3X1_3/Y gnd OAI21X1_21/C vdd NAND2X1
XFILL_23_1_0 gnd vdd FILL
XFILL_6_2_0 gnd vdd FILL
XFILL_14_1_0 gnd vdd FILL
XDFFPOSX1_139 MUX2X1_234/B CLKBUF1_12/Y OAI21X1_56/Y gnd vdd DFFPOSX1
XDFFPOSX1_128 NOR2X1_16/A CLKBUF1_4/A AOI21X1_13/Y gnd vdd DFFPOSX1
XMUX2X1_204 NOR2X1_28/A INVX1_7/A BUFX4_29/Y gnd MUX2X1_204/Y vdd MUX2X1
XDFFPOSX1_117 MUX2X1_91/B CLKBUF1_36/Y OAI21X1_42/Y gnd vdd DFFPOSX1
XDFFPOSX1_106 NAND2X1_36/A CLKBUF1_15/Y OAI21X1_31/Y gnd vdd DFFPOSX1
XMUX2X1_237 INVX1_48/A INVX1_40/A BUFX4_29/Y gnd MUX2X1_239/B vdd MUX2X1
XMUX2X1_226 MUX2X1_226/A MUX2X1_226/B BUFX4_33/Y gnd MUX2X1_226/Y vdd MUX2X1
XMUX2X1_248 MUX2X1_247/Y MUX2X1_248/B BUFX4_11/Y gnd MUX2X1_248/Y vdd MUX2X1
XINVX8_2 OR2X2_2/Y gnd INVX8_2/Y vdd INVX8
XMUX2X1_215 MUX2X1_215/A MUX2X1_213/Y BUFX4_16/Y gnd AOI22X1_27/A vdd MUX2X1
XFILL_3_0_0 gnd vdd FILL
XBUFX4_55 INVX8_3/Y gnd BUFX4_55/Y vdd BUFX4
XFILL_19_0_0 gnd vdd FILL
XBUFX4_44 INVX8_10/Y gnd BUFX4_44/Y vdd BUFX4
XBUFX4_11 BUFX4_12/A gnd BUFX4_11/Y vdd BUFX4
XBUFX4_33 BUFX4_34/A gnd BUFX4_33/Y vdd BUFX4
XBUFX4_22 INVX8_9/Y gnd BUFX4_22/Y vdd BUFX4
XINVX1_9 INVX1_9/A gnd INVX1_9/Y vdd INVX1
XFILL_1_3_1 gnd vdd FILL
XFILL_17_3_1 gnd vdd FILL
XOAI21X1_161 BUFX4_55/Y NAND3X1_12/Y OAI21X1_161/C gnd OAI21X1_161/Y vdd OAI21X1
XAOI22X1_4 AOI22X1_4/A AND2X2_4/B AND2X2_1/B AOI22X1_4/D gnd AOI22X1_4/Y vdd AOI22X1
XOAI21X1_150 OAI21X1_148/A BUFX4_23/Y OAI21X1_150/C gnd DFFPOSX1_15/D vdd OAI21X1
XAOI22X1_23 AOI22X1_23/A INVX1_49/A INVX8_2/Y MUX2X1_194/Y gnd AOI22X1_23/Y vdd AOI22X1
XNAND2X1_25 NAND2X1_25/A NAND3X1_3/Y gnd NAND2X1_25/Y vdd NAND2X1
XNAND2X1_69 MUX2X1_184/A NAND2X1_64/B gnd NAND2X1_69/Y vdd NAND2X1
XAOI22X1_12 AOI22X1_12/A AND2X2_4/B AND2X2_1/B MUX2X1_128/Y gnd AOI22X1_12/Y vdd AOI22X1
XNAND2X1_58 NAND2X1_58/A NAND2X1_56/B gnd OAI21X1_52/C vdd NAND2X1
XNAND2X1_47 MUX2X1_91/B NAND3X1_5/Y gnd OAI21X1_42/C vdd NAND2X1
XNAND2X1_14 NAND2X1_14/A OAI21X1_9/B gnd NAND2X1_14/Y vdd NAND2X1
XNAND2X1_36 NAND2X1_36/A OAI21X1_25/B gnd NAND2X1_36/Y vdd NAND2X1
XFILL_23_1_1 gnd vdd FILL
XFILL_14_1_1 gnd vdd FILL
XFILL_6_2_1 gnd vdd FILL
XDFFPOSX1_129 NOR2X1_17/A CLKBUF1_49/Y AOI21X1_14/Y gnd vdd DFFPOSX1
XDFFPOSX1_107 MUX2X1_235/A CLKBUF1_11/Y OAI21X1_32/Y gnd vdd DFFPOSX1
XDFFPOSX1_118 MUX2X1_115/B CLKBUF1_32/Y OAI21X1_43/Y gnd vdd DFFPOSX1
XCLKBUF1_1 CLKBUF1_1/A gnd CLKBUF1_1/Y vdd CLKBUF1
XINVX8_3 datain[0] gnd INVX8_3/Y vdd INVX8
XMUX2X1_238 INVX1_57/A NOR2X1_39/A BUFX4_30/Y gnd MUX2X1_239/A vdd MUX2X1
XMUX2X1_227 MUX2X1_226/Y MUX2X1_227/B BUFX4_12/Y gnd AOI22X1_29/A vdd MUX2X1
XMUX2X1_249 INVX1_58/Y MUX2X1_9/B MUX2X1_249/S gnd DFFPOSX1_1/D vdd MUX2X1
XMUX2X1_216 NOR2X1_56/A MUX2X1_216/B INVX2_3/A gnd MUX2X1_216/Y vdd MUX2X1
XFILL_3_0_1 gnd vdd FILL
XMUX2X1_205 INVX1_23/A MUX2X1_205/B BUFX4_30/Y gnd MUX2X1_205/Y vdd MUX2X1
XBUFX4_56 INVX8_3/Y gnd BUFX4_56/Y vdd BUFX4
XFILL_19_0_1 gnd vdd FILL
XBUFX4_12 BUFX4_12/A gnd BUFX4_12/Y vdd BUFX4
XBUFX4_34 BUFX4_34/A gnd BUFX4_34/Y vdd BUFX4
XBUFX4_23 INVX8_9/Y gnd BUFX4_23/Y vdd BUFX4
XBUFX4_45 INVX8_7/Y gnd BUFX4_45/Y vdd BUFX4
XOAI21X1_151 INVX2_5/A INVX8_11/A MUX2X1_225/A gnd OAI21X1_151/Y vdd OAI21X1
XNAND2X1_15 MUX2X1_196/A OAI21X1_9/B gnd NAND2X1_15/Y vdd NAND2X1
XAOI22X1_24 AOI22X1_24/A AND2X2_4/B AND2X2_1/B AOI22X1_24/D gnd AOI22X1_24/Y vdd AOI22X1
XNAND2X1_37 MUX2X1_235/A OAI21X1_25/B gnd NAND2X1_37/Y vdd NAND2X1
XNAND2X1_48 MUX2X1_115/B NAND3X1_5/Y gnd NAND2X1_48/Y vdd NAND2X1
XAOI22X1_13 MUX2X1_131/Y INVX8_11/Y INVX8_1/Y MUX2X1_134/Y gnd AOI22X1_13/Y vdd AOI22X1
XNAND2X1_59 NAND2X1_59/A NAND2X1_56/B gnd OAI21X1_53/C vdd NAND2X1
XOAI21X1_140 OAI21X1_148/A BUFX4_50/Y OAI21X1_140/C gnd DFFPOSX1_10/D vdd OAI21X1
XAOI22X1_5 AOI22X1_5/A INVX8_11/Y INVX8_1/Y MUX2X1_86/Y gnd AOI22X1_5/Y vdd AOI22X1
XNAND2X1_26 MUX2X1_219/B NAND3X1_3/Y gnd NAND2X1_26/Y vdd NAND2X1
XOAI21X1_162 BUFX4_51/Y NAND3X1_12/Y NAND2X1_168/Y gnd DFFPOSX1_34/D vdd OAI21X1
XFILL_19_1 gnd vdd FILL
XMUX2X1_1 INVX1_1/Y BUFX4_57/Y MUX2X1_6/S gnd MUX2X1_1/Y vdd MUX2X1
XDFFPOSX1_108 MUX2X1_58/A CLKBUF1_6/Y OAI21X1_33/Y gnd vdd DFFPOSX1
XDFFPOSX1_119 MUX2X1_139/B CLKBUF1_25/Y OAI21X1_44/Y gnd vdd DFFPOSX1
XCLKBUF1_2 CLKBUF1_2/A gnd CLKBUF1_2/Y vdd CLKBUF1
XMUX2X1_239 MUX2X1_239/A MUX2X1_239/B BUFX4_16/Y gnd AOI22X1_31/A vdd MUX2X1
XMUX2X1_228 NOR2X1_29/A INVX1_8/A BUFX4_34/Y gnd MUX2X1_228/Y vdd MUX2X1
XMUX2X1_217 MUX2X1_217/A MUX2X1_217/B BUFX4_38/Y gnd MUX2X1_218/A vdd MUX2X1
XMUX2X1_206 MUX2X1_205/Y MUX2X1_204/Y INVX2_6/A gnd MUX2X1_206/Y vdd MUX2X1
XBUFX4_57 INVX8_3/Y gnd BUFX4_57/Y vdd BUFX4
XBUFX4_13 BUFX4_12/A gnd INVX2_6/A vdd BUFX4
XBUFX4_24 INVX8_6/Y gnd BUFX4_24/Y vdd BUFX4
XBUFX4_35 BUFX4_34/A gnd BUFX4_35/Y vdd BUFX4
XINVX8_4 datain[1] gnd INVX8_4/Y vdd INVX8
XBUFX4_46 INVX8_7/Y gnd BUFX4_46/Y vdd BUFX4
XDFFPOSX1_90 INVX1_10/A CLKBUF1_14/Y MUX2X1_10/Y gnd vdd DFFPOSX1
XFILL_21_2_0 gnd vdd FILL
XFILL_12_2_0 gnd vdd FILL
XFILL_4_3_0 gnd vdd FILL
XNAND3X1_1 INVX2_2/A INVX2_7/Y AND2X2_1/B gnd NAND2X1_1/B vdd NAND3X1
XFILL_1_1_0 gnd vdd FILL
XNAND2X1_27 MUX2X1_243/B NAND3X1_3/Y gnd NAND2X1_27/Y vdd NAND2X1
XOAI21X1_152 OAI21X1_148/A BUFX4_43/Y OAI21X1_151/Y gnd OAI21X1_152/Y vdd OAI21X1
XNAND2X1_38 MUX2X1_58/A NAND3X1_4/Y gnd OAI21X1_33/C vdd NAND2X1
XOAI21X1_141 INVX2_5/A INVX8_11/A MUX2X1_105/A gnd OAI21X1_141/Y vdd OAI21X1
XFILL_17_1_0 gnd vdd FILL
XNAND2X1_49 MUX2X1_139/B NAND3X1_5/Y gnd NAND2X1_49/Y vdd NAND2X1
XFILL_9_2_0 gnd vdd FILL
XOAI21X1_163 BUFX4_8/Y NAND3X1_12/Y NAND2X1_169/Y gnd DFFPOSX1_35/D vdd OAI21X1
XOAI21X1_130 NAND2X1_132/Y NAND2X1_133/Y INVX4_1/Y gnd AOI21X1_39/B vdd OAI21X1
XAOI22X1_6 MUX2X1_89/Y AND2X2_3/A AND2X2_2/B MUX2X1_92/Y gnd AOI22X1_6/Y vdd AOI22X1
XNAND2X1_16 MUX2X1_220/A OAI21X1_9/B gnd OAI21X1_15/C vdd NAND2X1
XAOI22X1_14 MUX2X1_137/Y AND2X2_3/A AND2X2_2/B AOI22X1_14/D gnd AOI22X1_14/Y vdd AOI22X1
XAOI22X1_25 AOI22X1_25/A INVX8_11/Y INVX8_1/Y MUX2X1_206/Y gnd AOI22X1_25/Y vdd AOI22X1
XFILL_19_2 gnd vdd FILL
XCLKBUF1_3 CLKBUF1_3/A gnd CLKBUF1_3/Y vdd CLKBUF1
XDFFPOSX1_109 MUX2X1_82/A CLKBUF1_4/Y OAI21X1_34/Y gnd vdd DFFPOSX1
XMUX2X1_2 INVX1_2/Y MUX2X1_2/B MUX2X1_6/S gnd MUX2X1_2/Y vdd MUX2X1
XFILL_6_0_0 gnd vdd FILL
XMUX2X1_229 INVX1_24/A MUX2X1_229/B BUFX4_35/Y gnd MUX2X1_229/Y vdd MUX2X1
XMUX2X1_218 MUX2X1_218/A MUX2X1_216/Y BUFX4_17/Y gnd AOI22X1_27/D vdd MUX2X1
XMUX2X1_207 INVX1_65/A INVX1_15/A BUFX4_31/Y gnd MUX2X1_207/Y vdd MUX2X1
XDFFPOSX1_80 MUX2X1_243/B CLKBUF1_3/A OAI21X1_24/Y gnd vdd DFFPOSX1
XBUFX4_58 INVX8_3/Y gnd BUFX4_58/Y vdd BUFX4
XDFFPOSX1_91 INVX1_11/A CLKBUF1_10/Y MUX2X1_11/Y gnd vdd DFFPOSX1
XINVX8_5 datain[2] gnd INVX8_5/Y vdd INVX8
XBUFX4_14 BUFX4_12/A gnd BUFX4_14/Y vdd BUFX4
XBUFX4_36 BUFX4_34/A gnd BUFX4_36/Y vdd BUFX4
XBUFX4_25 INVX8_6/Y gnd BUFX4_25/Y vdd BUFX4
XBUFX4_47 INVX8_7/Y gnd BUFX4_47/Y vdd BUFX4
XFILL_21_2_1 gnd vdd FILL
XFILL_12_2_1 gnd vdd FILL
XFILL_4_3_1 gnd vdd FILL
XNAND3X1_2 INVX2_2/A INVX2_1/Y AND2X2_4/B gnd OAI21X1_9/B vdd NAND3X1
XNAND2X1_17 NAND2X1_17/A OAI21X1_9/B gnd NAND2X1_17/Y vdd NAND2X1
XOAI21X1_153 BUFX4_55/Y NAND3X1_11/Y OAI21X1_153/C gnd DFFPOSX1_25/D vdd OAI21X1
XOAI21X1_120 BUFX4_41/Y OAI21X1_118/B OAI21X1_120/C gnd OAI21X1_120/Y vdd OAI21X1
XOAI21X1_142 OAI21X1_148/A BUFX4_7/Y OAI21X1_141/Y gnd OAI21X1_142/Y vdd OAI21X1
XOAI21X1_164 BUFX4_28/Y NAND3X1_12/Y NAND2X1_170/Y gnd DFFPOSX1_36/D vdd OAI21X1
XOAI21X1_131 OAI21X1_131/A NAND2X1_136/Y INVX4_1/Y gnd AOI21X1_40/B vdd OAI21X1
XNAND2X1_28 INVX2_7/Y AND2X2_3/Y gnd MUX2X1_9/S vdd NAND2X1
XNAND2X1_170 MUX2X1_151/B NAND3X1_12/Y gnd NAND2X1_170/Y vdd NAND2X1
XFILL_9_2_1 gnd vdd FILL
XFILL_1_1_1 gnd vdd FILL
XNAND2X1_39 MUX2X1_82/A NAND3X1_4/Y gnd NAND2X1_39/Y vdd NAND2X1
XAOI22X1_7 MUX2X1_95/Y INVX1_49/A INVX8_2/Y AOI22X1_7/D gnd AOI22X1_7/Y vdd AOI22X1
XFILL_17_1_1 gnd vdd FILL
XAOI22X1_15 AOI22X1_15/A INVX1_49/A INVX8_2/Y MUX2X1_146/Y gnd AOI22X1_15/Y vdd AOI22X1
XAOI22X1_26 MUX2X1_209/Y AND2X2_3/A AND2X2_2/B AOI22X1_26/D gnd AOI22X1_26/Y vdd AOI22X1
XFILL_19_3 gnd vdd FILL
XMUX2X1_3 INVX1_3/Y BUFX4_6/Y MUX2X1_6/S gnd MUX2X1_3/Y vdd MUX2X1
XCLKBUF1_4 CLKBUF1_4/A gnd CLKBUF1_4/Y vdd CLKBUF1
XFILL_6_0_1 gnd vdd FILL
XFILL_24_1 gnd vdd FILL
XMUX2X1_219 NOR2X1_67/A MUX2X1_219/B BUFX4_39/Y gnd MUX2X1_221/B vdd MUX2X1
XMUX2X1_208 NAND2X1_70/A INVX1_31/A BUFX4_32/Y gnd MUX2X1_208/Y vdd MUX2X1
XDFFPOSX1_81 NOR2X1_2/A CLKBUF1_50/Y AOI21X1_1/Y gnd vdd DFFPOSX1
XDFFPOSX1_70 INVX1_6/A CLKBUF1_31/Y MUX2X1_6/Y gnd vdd DFFPOSX1
XBUFX4_59 INVX8_3/Y gnd MUX2X1_9/B vdd BUFX4
XBUFX4_15 BUFX4_12/A gnd BUFX4_15/Y vdd BUFX4
XBUFX4_26 INVX8_6/Y gnd BUFX4_26/Y vdd BUFX4
XINVX8_6 datain[3] gnd INVX8_6/Y vdd INVX8
XBUFX4_37 BUFX4_34/A gnd INVX2_3/A vdd BUFX4
XDFFPOSX1_92 INVX1_12/A CLKBUF1_8/Y MUX2X1_12/Y gnd vdd DFFPOSX1
XBUFX4_48 INVX8_7/Y gnd BUFX4_48/Y vdd BUFX4
XDFFPOSX1_260 MUX2X1_217/B CLKBUF1_39/Y OAI21X1_127/Y gnd vdd DFFPOSX1
XOAI21X1_110 BUFX4_3/Y NAND3X1_8/Y NAND2X1_108/Y gnd OAI21X1_110/Y vdd OAI21X1
XOAI21X1_121 BUFX4_56/Y NAND3X1_9/Y NAND2X1_120/Y gnd OAI21X1_121/Y vdd OAI21X1
XOAI21X1_132 NAND2X1_138/Y NAND2X1_139/Y INVX4_1/Y gnd AOI21X1_41/B vdd OAI21X1
XNAND3X1_3 INVX2_2/A INVX2_7/Y AND2X2_4/B gnd NAND3X1_3/Y vdd NAND3X1
XOAI21X1_143 INVX2_5/A INVX8_11/A MUX2X1_129/A gnd OAI21X1_143/Y vdd OAI21X1
XOAI21X1_165 BUFX4_47/Y NAND3X1_12/Y OAI21X1_165/C gnd OAI21X1_165/Y vdd OAI21X1
XOAI21X1_154 BUFX4_52/Y NAND3X1_11/Y OAI21X1_154/C gnd DFFPOSX1_26/D vdd OAI21X1
XAOI22X1_8 AOI22X1_8/A AND2X2_4/B AND2X2_1/B AOI22X1_8/D gnd AOI22X1_8/Y vdd AOI22X1
XNAND2X1_29 AND2X2_2/B NOR2X1_11/Y gnd OAI21X1_25/B vdd NAND2X1
XAOI22X1_16 AOI22X1_16/A AND2X2_4/B AND2X2_1/B MUX2X1_152/Y gnd AOI22X1_16/Y vdd AOI22X1
XNAND2X1_18 INVX2_4/A NOR2X1_48/Y gnd INVX8_1/A vdd NAND2X1
XAOI22X1_27 AOI22X1_27/A INVX1_49/A INVX8_2/Y AOI22X1_27/D gnd AOI22X1_27/Y vdd AOI22X1
XNAND2X1_171 MUX2X1_175/B NAND3X1_12/Y gnd OAI21X1_165/C vdd NAND2X1
XNAND2X1_160 MUX2X1_100/B NAND3X1_11/Y gnd OAI21X1_154/C vdd NAND2X1
XFILL_10_3_0 gnd vdd FILL
XAOI21X1_60 BUFX4_23/Y AND2X2_4/Y NOR2X1_67/Y gnd AOI21X1_60/Y vdd AOI21X1
XMUX2X1_4 INVX1_4/Y BUFX4_27/Y MUX2X1_6/S gnd MUX2X1_4/Y vdd MUX2X1
XFILL_24_2 gnd vdd FILL
XFILL_17_1 gnd vdd FILL
XCLKBUF1_5 CLKBUF1_5/A gnd CLKBUF1_5/Y vdd CLKBUF1
XMUX2X1_209 MUX2X1_208/Y MUX2X1_207/Y BUFX4_14/Y gnd MUX2X1_209/Y vdd MUX2X1
XDFFPOSX1_60 MUX2X1_148/A CLKBUF1_6/Y OAI21X1_12/Y gnd vdd DFFPOSX1
XINVX8_7 datain[4] gnd INVX8_7/Y vdd INVX8
XDFFPOSX1_82 NOR2X1_3/A CLKBUF1_47/Y AOI21X1_2/Y gnd vdd DFFPOSX1
XDFFPOSX1_71 INVX1_7/A CLKBUF1_26/Y MUX2X1_7/Y gnd vdd DFFPOSX1
XDFFPOSX1_93 INVX1_13/A CLKBUF1_2/Y MUX2X1_13/Y gnd vdd DFFPOSX1
XFILL_15_2_0 gnd vdd FILL
XBUFX4_16 BUFX4_12/A gnd BUFX4_16/Y vdd BUFX4
XBUFX4_38 BUFX4_34/A gnd BUFX4_38/Y vdd BUFX4
XBUFX4_27 INVX8_6/Y gnd BUFX4_27/Y vdd BUFX4
XFILL_7_3_0 gnd vdd FILL
XBUFX4_49 INVX8_7/Y gnd MUX2X1_5/B vdd BUFX4
XBUFX4_1 INVX8_8/Y gnd BUFX4_1/Y vdd BUFX4
XFILL_21_0_0 gnd vdd FILL
XDFFPOSX1_261 MUX2X1_241/B CLKBUF1_33/Y OAI21X1_128/Y gnd vdd DFFPOSX1
XINVX4_1 rw gnd INVX4_1/Y vdd INVX4
XFILL_12_0_0 gnd vdd FILL
XDFFPOSX1_250 MUX2X1_154/B CLKBUF1_16/Y OAI21X1_117/Y gnd vdd DFFPOSX1
XFILL_4_1_0 gnd vdd FILL
XOAI21X1_155 BUFX4_10/Y NAND3X1_11/Y NAND2X1_161/Y gnd OAI21X1_155/Y vdd OAI21X1
XOAI21X1_166 BUFX4_3/Y NAND3X1_12/Y NAND2X1_172/Y gnd DFFPOSX1_38/D vdd OAI21X1
XNAND3X1_4 INVX2_1/Y INVX2_2/A INVX8_11/Y gnd NAND3X1_4/Y vdd NAND3X1
XAOI22X1_9 AOI22X1_9/A INVX8_11/Y INVX8_1/Y AOI22X1_9/D gnd AOI22X1_9/Y vdd AOI22X1
XOAI21X1_100 BUFX4_28/Y NAND3X1_7/Y NAND2X1_95/Y gnd OAI21X1_100/Y vdd OAI21X1
XOAI21X1_111 BUFX4_19/Y NAND3X1_8/Y OAI21X1_111/C gnd OAI21X1_111/Y vdd OAI21X1
XOAI21X1_144 OAI21X1_148/A BUFX4_25/Y OAI21X1_143/Y gnd DFFPOSX1_12/D vdd OAI21X1
XOAI21X1_133 NAND2X1_141/Y NAND2X1_142/Y INVX4_1/Y gnd AOI21X1_42/B vdd OAI21X1
XOAI21X1_122 BUFX4_52/Y NAND3X1_9/Y NAND2X1_121/Y gnd OAI21X1_122/Y vdd OAI21X1
XNAND2X1_161 MUX2X1_124/B NAND3X1_11/Y gnd NAND2X1_161/Y vdd NAND2X1
XNAND2X1_172 MUX2X1_199/B NAND3X1_12/Y gnd NAND2X1_172/Y vdd NAND2X1
XNAND2X1_150 AOI22X1_29/Y AOI22X1_30/Y gnd NAND2X1_150/Y vdd NAND2X1
XNAND2X1_19 INVX8_1/Y NOR2X1_1/Y gnd MUX2X1_6/S vdd NAND2X1
XAOI22X1_17 AOI22X1_17/A INVX8_11/Y INVX8_1/Y MUX2X1_158/Y gnd AOI22X1_17/Y vdd AOI22X1
XAOI22X1_28 AOI22X1_28/A AND2X2_4/B AND2X2_1/B MUX2X1_224/Y gnd AOI22X1_28/Y vdd AOI22X1
XAOI21X1_61 BUFX4_40/Y AND2X2_4/Y NOR2X1_68/Y gnd AOI21X1_61/Y vdd AOI21X1
XOAI21X1_1 BUFX4_55/Y NAND2X1_1/B OAI21X1_1/C gnd OAI21X1_1/Y vdd OAI21X1
XFILL_10_3_1 gnd vdd FILL
XFILL_9_0_0 gnd vdd FILL
XAOI21X1_50 BUFX4_48/Y NOR2X1_50/B NOR2X1_54/Y gnd AOI21X1_50/Y vdd AOI21X1
XMUX2X1_5 INVX1_5/Y MUX2X1_5/B MUX2X1_6/S gnd MUX2X1_5/Y vdd MUX2X1
XFILL_24_3 gnd vdd FILL
XCLKBUF1_6 CLKBUF1_5/A gnd CLKBUF1_6/Y vdd CLKBUF1
XINVX8_8 datain[5] gnd INVX8_8/Y vdd INVX8
XDFFPOSX1_94 INVX1_14/A CLKBUF1_67/Y MUX2X1_14/Y gnd vdd DFFPOSX1
XFILL_15_2_1 gnd vdd FILL
XDFFPOSX1_72 INVX1_8/A CLKBUF1_22/Y MUX2X1_8/Y gnd vdd DFFPOSX1
XBUFX4_17 BUFX4_12/A gnd BUFX4_17/Y vdd BUFX4
XDFFPOSX1_83 NOR2X1_4/A CLKBUF1_41/Y AOI21X1_3/Y gnd vdd DFFPOSX1
XBUFX4_28 INVX8_6/Y gnd BUFX4_28/Y vdd BUFX4
XBUFX4_39 BUFX4_34/A gnd BUFX4_39/Y vdd BUFX4
XFILL_7_3_1 gnd vdd FILL
XDFFPOSX1_50 NAND2X1_2/A CLKBUF1_47/Y OAI21X1_2/Y gnd vdd DFFPOSX1
XDFFPOSX1_61 NAND2X1_14/A CLKBUF1_1/Y OAI21X1_13/Y gnd vdd DFFPOSX1
XDFFPOSX1_251 MUX2X1_178/B CLKBUF1_10/Y OAI21X1_118/Y gnd vdd DFFPOSX1
XFILL_21_0_1 gnd vdd FILL
XBUFX4_2 INVX8_8/Y gnd BUFX4_2/Y vdd BUFX4
XDFFPOSX1_262 BUFX2_1/A CLKBUF1_32/Y AOI21X1_38/Y gnd vdd DFFPOSX1
XDFFPOSX1_240 MUX2X1_120/B CLKBUF1_41/A OAI21X1_107/Y gnd vdd DFFPOSX1
XFILL_4_1_1 gnd vdd FILL
XFILL_12_0_1 gnd vdd FILL
XOAI21X1_112 BUFX4_42/Y NAND3X1_8/Y NAND2X1_110/Y gnd OAI21X1_112/Y vdd OAI21X1
XNAND3X1_5 INVX2_2/A NAND3X1_5/B AND2X2_2/B gnd NAND3X1_5/Y vdd NAND3X1
XOAI21X1_101 MUX2X1_5/B NAND3X1_7/Y NAND2X1_96/Y gnd OAI21X1_101/Y vdd OAI21X1
XNAND2X1_151 AOI22X1_31/Y AOI22X1_32/Y gnd OAI21X1_136/B vdd NAND2X1
XOAI21X1_134 NAND2X1_144/Y NAND2X1_145/Y INVX4_1/Y gnd AOI21X1_43/B vdd OAI21X1
XAOI22X1_29 AOI22X1_29/A INVX8_11/Y INVX8_1/Y MUX2X1_230/Y gnd AOI22X1_29/Y vdd AOI22X1
XOAI21X1_123 BUFX4_9/Y NAND3X1_9/Y NAND2X1_122/Y gnd OAI21X1_123/Y vdd OAI21X1
XNAND2X1_162 MUX2X1_148/B NAND3X1_11/Y gnd OAI21X1_156/C vdd NAND2X1
XOAI21X1_156 BUFX4_24/Y NAND3X1_11/Y OAI21X1_156/C gnd OAI21X1_156/Y vdd OAI21X1
XNAND2X1_140 rw BUFX2_5/A gnd AOI21X1_42/A vdd NAND2X1
XOAI21X1_145 INVX2_5/A INVX8_11/A MUX2X1_153/A gnd OAI21X1_145/Y vdd OAI21X1
XAOI22X1_18 MUX2X1_161/Y AND2X2_3/A AND2X2_2/B AOI22X1_18/D gnd AOI22X1_18/Y vdd AOI22X1
XOAI21X1_167 BUFX4_21/Y NAND3X1_12/Y NAND2X1_173/Y gnd OAI21X1_167/Y vdd OAI21X1
XNAND2X1_173 MUX2X1_223/B NAND3X1_12/Y gnd NAND2X1_173/Y vdd NAND2X1
XMUX2X1_190 INVX1_55/A NOR2X1_37/A BUFX4_31/Y gnd MUX2X1_191/A vdd MUX2X1
XAOI21X1_51 BUFX4_1/Y NOR2X1_50/B NOR2X1_55/Y gnd AOI21X1_51/Y vdd AOI21X1
XAOI21X1_40 AOI21X1_40/A AOI21X1_40/B NOR2X1_46/B gnd AOI21X1_40/Y vdd AOI21X1
XFILL_9_0_1 gnd vdd FILL
XOAI21X1_2 BUFX4_51/Y NAND2X1_1/B OAI21X1_2/C gnd OAI21X1_2/Y vdd OAI21X1
XCLKBUF1_7 CLKBUF1_7/A gnd CLKBUF1_7/Y vdd CLKBUF1
XMUX2X1_6 INVX1_6/Y BUFX4_5/Y MUX2X1_6/S gnd MUX2X1_6/Y vdd MUX2X1
XDFFPOSX1_73 MUX2X1_75/B CLKBUF1_17/Y OAI21X1_17/Y gnd vdd DFFPOSX1
XDFFPOSX1_62 MUX2X1_196/A CLKBUF1_67/Y OAI21X1_14/Y gnd vdd DFFPOSX1
XBUFX4_18 BUFX4_12/A gnd BUFX4_18/Y vdd BUFX4
XDFFPOSX1_51 NAND2X1_3/A CLKBUF1_41/Y OAI21X1_3/Y gnd vdd DFFPOSX1
XDFFPOSX1_40 MUX2X1_247/B CLKBUF1_23/Y DFFPOSX1_40/D gnd vdd DFFPOSX1
XDFFPOSX1_84 NOR2X1_5/A CLKBUF1_39/Y AOI21X1_4/Y gnd vdd DFFPOSX1
XBUFX4_29 BUFX4_34/A gnd BUFX4_29/Y vdd BUFX4
XINVX8_9 datain[6] gnd INVX8_9/Y vdd INVX8
XDFFPOSX1_95 INVX1_15/A CLKBUF1_27/A MUX2X1_15/Y gnd vdd DFFPOSX1
XFILL_22_1 gnd vdd FILL
XBUFX4_3 INVX8_8/Y gnd BUFX4_3/Y vdd BUFX4
XDFFPOSX1_230 INVX1_50/A CLKBUF1_30/Y MUX2X1_49/Y gnd vdd DFFPOSX1
XDFFPOSX1_241 MUX2X1_144/B CLKBUF1_51/Y OAI21X1_108/Y gnd vdd DFFPOSX1
XDFFPOSX1_263 BUFX2_2/A CLKBUF1_26/Y AOI21X1_39/Y gnd vdd DFFPOSX1
XDFFPOSX1_252 MUX2X1_202/B CLKBUF1_5/Y OAI21X1_119/Y gnd vdd DFFPOSX1
XNAND3X1_6 INVX2_2/A INVX2_1/Y INVX8_2/Y gnd NAND3X1_6/Y vdd NAND3X1
XFILL_22_3_0 gnd vdd FILL
XOAI21X1_102 BUFX4_3/Y NAND3X1_7/Y NAND2X1_97/Y gnd OAI21X1_102/Y vdd OAI21X1
XOAI21X1_113 BUFX4_58/Y OAI21X1_118/B NAND2X1_112/Y gnd OAI21X1_113/Y vdd OAI21X1
XNAND2X1_130 AOI22X1_3/Y AOI22X1_4/Y gnd OAI21X1_129/B vdd NAND2X1
XFILL_13_3_0 gnd vdd FILL
XOAI21X1_124 BUFX4_26/Y NAND3X1_9/Y OAI21X1_124/C gnd OAI21X1_124/Y vdd OAI21X1
XNAND2X1_174 MUX2X1_247/B NAND3X1_12/Y gnd OAI21X1_168/C vdd NAND2X1
XOAI21X1_168 BUFX4_44/Y NAND3X1_12/Y OAI21X1_168/C gnd DFFPOSX1_40/D vdd OAI21X1
XNAND2X1_152 INVX1_67/A INVX1_59/Y gnd NOR2X1_47/B vdd NAND2X1
XOAI21X1_146 OAI21X1_148/A BUFX4_45/Y OAI21X1_145/Y gnd OAI21X1_146/Y vdd OAI21X1
XOAI21X1_135 NAND2X1_147/Y NAND2X1_148/Y INVX4_1/Y gnd AOI21X1_44/B vdd OAI21X1
XNAND2X1_141 AOI22X1_17/Y AOI22X1_18/Y gnd NAND2X1_141/Y vdd NAND2X1
XNAND2X1_163 MUX2X1_172/B NAND3X1_11/Y gnd NAND2X1_163/Y vdd NAND2X1
XOAI21X1_157 BUFX4_46/Y NAND3X1_11/Y NAND2X1_163/Y gnd DFFPOSX1_29/D vdd OAI21X1
XMUX2X1_180 NOR2X1_27/A INVX1_6/A BUFX4_35/Y gnd MUX2X1_180/Y vdd MUX2X1
XMUX2X1_191 MUX2X1_191/A MUX2X1_191/B BUFX4_16/Y gnd AOI22X1_23/A vdd MUX2X1
XAOI22X1_19 MUX2X1_167/Y INVX1_49/A INVX8_2/Y MUX2X1_170/Y gnd AOI22X1_19/Y vdd AOI22X1
XAOI21X1_30 BUFX4_1/Y NOR2X1_39/B NOR2X1_37/Y gnd AOI21X1_30/Y vdd AOI21X1
XAOI21X1_41 AOI21X1_41/A AOI21X1_41/B NOR2X1_46/B gnd AOI21X1_41/Y vdd AOI21X1
XAOI21X1_52 BUFX4_19/Y NOR2X1_50/B NOR2X1_56/Y gnd AOI21X1_52/Y vdd AOI21X1
XOAI21X1_3 BUFX4_9/Y NAND2X1_1/B OAI21X1_3/C gnd OAI21X1_3/Y vdd OAI21X1
XFILL_10_1_0 gnd vdd FILL
XCLKBUF1_8 CLKBUF1_8/A gnd CLKBUF1_8/Y vdd CLKBUF1
XMUX2X1_7 INVX1_7/Y MUX2X1_7/B MUX2X1_6/S gnd MUX2X1_7/Y vdd MUX2X1
XFILL_2_2_0 gnd vdd FILL
XFILL_18_2_0 gnd vdd FILL
XDFFPOSX1_41 MUX2X1_75/A CLKBUF1_17/Y AOI21X1_54/Y gnd vdd DFFPOSX1
XDFFPOSX1_30 MUX2X1_196/B CLKBUF1_67/Y DFFPOSX1_30/D gnd vdd DFFPOSX1
XDFFPOSX1_96 INVX1_16/A CLKBUF1_67/Y MUX2X1_16/Y gnd vdd DFFPOSX1
XDFFPOSX1_52 NAND2X1_4/A CLKBUF1_37/Y OAI21X1_4/Y gnd vdd DFFPOSX1
XBUFX4_19 INVX8_9/Y gnd BUFX4_19/Y vdd BUFX4
XDFFPOSX1_85 NOR2X1_6/A CLKBUF1_35/Y AOI21X1_5/Y gnd vdd DFFPOSX1
XDFFPOSX1_74 MUX2X1_99/B CLKBUF1_13/Y OAI21X1_18/Y gnd vdd DFFPOSX1
XDFFPOSX1_63 MUX2X1_220/A CLKBUF1_2/A OAI21X1_15/Y gnd vdd DFFPOSX1
XFILL_15_1 gnd vdd FILL
XFILL_15_0_0 gnd vdd FILL
XFILL_7_1_0 gnd vdd FILL
XBUFX4_4 INVX8_8/Y gnd BUFX4_4/Y vdd BUFX4
XDFFPOSX1_253 MUX2X1_226/B CLKBUF1_3/Y OAI21X1_120/Y gnd vdd DFFPOSX1
XDFFPOSX1_264 BUFX2_3/A CLKBUF1_21/Y AOI21X1_40/Y gnd vdd DFFPOSX1
XDFFPOSX1_220 INVX1_47/A CLKBUF1_8/Y MUX2X1_47/Y gnd vdd DFFPOSX1
XDFFPOSX1_231 INVX1_51/A CLKBUF1_28/Y MUX2X1_50/Y gnd vdd DFFPOSX1
XDFFPOSX1_242 MUX2X1_168/B CLKBUF1_45/Y OAI21X1_109/Y gnd vdd DFFPOSX1
XNAND3X1_7 INVX2_2/A INVX2_1/Y AND2X2_1/B gnd NAND3X1_7/Y vdd NAND3X1
XFILL_22_3_1 gnd vdd FILL
XOAI21X1_147 INVX2_5/A INVX8_11/A MUX2X1_177/A gnd OAI21X1_147/Y vdd OAI21X1
XOAI21X1_158 BUFX4_2/Y NAND3X1_11/Y NAND2X1_164/Y gnd DFFPOSX1_30/D vdd OAI21X1
XNAND2X1_164 MUX2X1_196/B NAND3X1_11/Y gnd NAND2X1_164/Y vdd NAND2X1
XBUFX2_1 BUFX2_1/A gnd dataout[0] vdd BUFX2
XOAI21X1_136 NAND2X1_150/Y OAI21X1_136/B INVX4_1/Y gnd AOI21X1_45/B vdd OAI21X1
XNAND2X1_120 MUX2X1_73/B NAND3X1_9/Y gnd NAND2X1_120/Y vdd NAND2X1
XNAND2X1_175 INVX2_3/Y INVX2_6/Y gnd INVX2_7/A vdd NAND2X1
XNAND2X1_153 NOR2X1_45/Y AND2X2_3/Y gnd MUX2X1_249/S vdd NAND2X1
XNAND2X1_131 rw BUFX2_2/A gnd AOI21X1_39/A vdd NAND2X1
XNAND2X1_142 AOI22X1_19/Y AOI22X1_20/Y gnd NAND2X1_142/Y vdd NAND2X1
XOAI21X1_103 BUFX4_22/Y NAND3X1_7/Y NAND2X1_98/Y gnd OAI21X1_103/Y vdd OAI21X1
XOAI21X1_114 BUFX4_50/Y OAI21X1_118/B NAND2X1_113/Y gnd OAI21X1_114/Y vdd OAI21X1
XOAI21X1_125 BUFX4_47/Y NAND3X1_9/Y OAI21X1_125/C gnd OAI21X1_125/Y vdd OAI21X1
XAOI21X1_1 BUFX4_55/Y NOR2X1_2/B NOR2X1_2/Y gnd AOI21X1_1/Y vdd AOI21X1
XMUX2X1_192 NOR2X1_55/A MUX2X1_192/B BUFX4_32/Y gnd MUX2X1_194/B vdd MUX2X1
XMUX2X1_181 INVX1_22/A MUX2X1_181/B BUFX4_36/Y gnd MUX2X1_182/A vdd MUX2X1
XINVX2_1 INVX2_1/A gnd INVX2_1/Y vdd INVX2
XFILL_13_3_1 gnd vdd FILL
XMUX2X1_170 MUX2X1_169/Y MUX2X1_168/Y BUFX4_17/Y gnd MUX2X1_170/Y vdd MUX2X1
XAOI21X1_53 BUFX4_42/Y NOR2X1_50/B NOR2X1_57/Y gnd AOI21X1_53/Y vdd AOI21X1
XOAI21X1_4 BUFX4_28/Y NAND2X1_1/B OAI21X1_4/C gnd OAI21X1_4/Y vdd OAI21X1
XAOI21X1_31 BUFX4_19/Y NOR2X1_39/B NOR2X1_38/Y gnd AOI21X1_31/Y vdd AOI21X1
XAOI21X1_42 AOI21X1_42/A AOI21X1_42/B NOR2X1_46/B gnd AOI21X1_42/Y vdd AOI21X1
XAOI21X1_20 BUFX4_27/Y NOR2X1_22/B NOR2X1_25/Y gnd AOI21X1_20/Y vdd AOI21X1
XFILL_3_1 gnd vdd FILL
XCLKBUF1_9 CLKBUF1_9/A gnd CLKBUF1_9/Y vdd CLKBUF1
XMUX2X1_8 INVX1_8/Y BUFX4_41/Y MUX2X1_6/S gnd MUX2X1_8/Y vdd MUX2X1
XFILL_10_1_1 gnd vdd FILL
XFILL_2_2_1 gnd vdd FILL
XFILL_18_2_1 gnd vdd FILL