* NGSPICE file created from ram32_sdram_3split.ext - technology: scmos

* Black-box entry subcircuit for MUX2X1 abstract view
.subckt MUX2X1 A B S gnd Y vdd
.ends

* Black-box entry subcircuit for FILL abstract view
.subckt FILL gnd vdd
.ends

* Black-box entry subcircuit for NAND2X1 abstract view
.subckt NAND2X1 A B gnd Y vdd
.ends

* Black-box entry subcircuit for OAI21X1 abstract view
.subckt OAI21X1 A B C gnd Y vdd
.ends

* Black-box entry subcircuit for OAI22X1 abstract view
.subckt OAI22X1 A B C D gnd Y vdd
.ends

* Black-box entry subcircuit for DFFPOSX1 abstract view
.subckt DFFPOSX1 Q CLK D gnd vdd
.ends

* Black-box entry subcircuit for BUFX4 abstract view
.subckt BUFX4 A gnd Y vdd
.ends

* Black-box entry subcircuit for INVX1 abstract view
.subckt INVX1 A gnd Y vdd
.ends

* Black-box entry subcircuit for OR2X2 abstract view
.subckt OR2X2 A B gnd Y vdd
.ends

* Black-box entry subcircuit for INVX8 abstract view
.subckt INVX8 A gnd Y vdd
.ends

* Black-box entry subcircuit for AOI22X1 abstract view
.subckt AOI22X1 A B C D gnd Y vdd
.ends

* Black-box entry subcircuit for CLKBUF1 abstract view
.subckt CLKBUF1 A gnd Y vdd
.ends

* Black-box entry subcircuit for NAND3X1 abstract view
.subckt NAND3X1 A B C gnd Y vdd
.ends

* Black-box entry subcircuit for INVX4 abstract view
.subckt INVX4 A gnd Y vdd
.ends

* Black-box entry subcircuit for BUFX2 abstract view
.subckt BUFX2 A gnd Y vdd
.ends

* Black-box entry subcircuit for AOI21X1 abstract view
.subckt AOI21X1 A B C gnd Y vdd
.ends

* Black-box entry subcircuit for INVX2 abstract view
.subckt INVX2 A gnd Y vdd
.ends

* Black-box entry subcircuit for NOR2X1 abstract view
.subckt NOR2X1 A B gnd Y vdd
.ends

.subckt ram32_sdram_3split vdd gnd en rw clk ras cas vas datain[0] datain[1] datain[2]
+ datain[3] datain[4] datain[5] datain[6] datain[7] address[0] address[1] address[2]
+ address[3] address[4] dataout[0] dataout[1] dataout[2] dataout[3] dataout[4] dataout[5]
+ dataout[6] dataout[7]
XMUX2X1_17 MUX2X1_17/A MUX2X1_17/B BUFX4_17/Y gnd MUX2X1_18/B vdd MUX2X1
XFILL_14_3_0 gnd vdd FILL
XMUX2X1_39 MUX2X1_39/A MUX2X1_39/B INVX4_8/A gnd MUX2X1_39/Y vdd MUX2X1
XMUX2X1_28 MUX2X1_28/A MUX2X1_28/B BUFX4_16/Y gnd MUX2X1_30/A vdd MUX2X1
XNAND2X1_54 MUX2X1_61/A NAND3X1_6/Y gnd OAI21X1_55/C vdd NAND2X1
XOAI21X1_190 INVX4_5/Y INVX4_6/Y OAI21X1_190/C gnd OAI21X1_191/B vdd OAI21X1
XNAND2X1_65 NAND2X1_65/A NAND3X1_8/Y gnd OAI21X1_66/C vdd NAND2X1
XNAND2X1_32 INVX1_4/A NAND3X1_4/Y gnd OAI21X1_33/C vdd NAND2X1
XNAND2X1_98 NAND2X1_98/A NAND2X1_98/B gnd AOI21X1_7/B vdd NAND2X1
XNAND2X1_87 INVX1_36/A NAND2X1_83/B gnd NAND2X1_87/Y vdd NAND2X1
XNAND2X1_10 MUX2X1_19/B NAND2X1_8/B gnd OAI21X1_11/C vdd NAND2X1
XNAND2X1_21 MUX2X1_53/B NAND3X1_2/Y gnd NAND2X1_21/Y vdd NAND2X1
XNAND2X1_76 MUX2X1_44/B NAND3X1_9/Y gnd OAI21X1_77/C vdd NAND2X1
XNAND2X1_43 NAND2X1_43/A NAND3X1_5/Y gnd OAI21X1_44/C vdd NAND2X1
XOAI22X1_3 INVX1_13/Y OR2X2_3/B INVX4_3/A INVX1_12/Y gnd OAI22X1_3/Y vdd OAI22X1
XFILL_20_1_0 gnd vdd FILL
XFILL_19_2_0 gnd vdd FILL
XFILL_11_1_0 gnd vdd FILL
XOAI21X1_19 BUFX4_3/Y NAND3X1_2/Y NAND2X1_18/Y gnd OAI21X1_19/Y vdd OAI21X1
XFILL_3_2_0 gnd vdd FILL
XDFFPOSX1_169 MUX2X1_35/B CLKBUF1_4/Y OAI21X1_88/Y gnd vdd DFFPOSX1
XDFFPOSX1_103 MUX2X1_69/B CLKBUF1_10/Y OAI21X1_23/Y gnd vdd DFFPOSX1
XDFFPOSX1_114 INVX1_12/A CLKBUF1_5/Y OAI21X1_34/Y gnd vdd DFFPOSX1
XNAND2X1_217 NAND2X1_147/B NAND3X1_29/Y gnd NAND2X1_217/Y vdd NAND2X1
XDFFPOSX1_125 NAND2X1_44/A CLKBUF1_7/Y OAI21X1_45/Y gnd vdd DFFPOSX1
XDFFPOSX1_136 MUX2X1_73/A CLKBUF1_5/Y OAI21X1_56/Y gnd vdd DFFPOSX1
XNAND2X1_206 MUX2X1_48/A NAND3X1_28/Y gnd OAI21X1_264/C vdd NAND2X1
XDFFPOSX1_147 NAND2X1_66/A CLKBUF1_14/Y OAI21X1_67/Y gnd vdd DFFPOSX1
XDFFPOSX1_158 INVX1_37/A CLKBUF1_2/Y OAI21X1_78/Y gnd vdd DFFPOSX1
XBUFX4_52 BUFX4_50/A gnd BUFX4_52/Y vdd BUFX4
XBUFX4_63 INVX8_3/Y gnd BUFX4_63/Y vdd BUFX4
XBUFX4_41 BUFX4_42/A gnd BUFX4_41/Y vdd BUFX4
XBUFX4_30 INVX8_6/Y gnd BUFX4_30/Y vdd BUFX4
XINVX1_6 INVX1_6/A gnd INVX1_6/Y vdd INVX1
XOR2X2_4 OR2X2_4/A OR2X2_4/B gnd OR2X2_4/Y vdd OR2X2
XINVX8_11 BUFX4_35/Y gnd NOR2X1_1/B vdd INVX8
XFILL_0_0_0 gnd vdd FILL
XFILL_16_0_0 gnd vdd FILL
XFILL_8_1_0 gnd vdd FILL
XMUX2X1_18 MUX2X1_16/Y MUX2X1_18/B OR2X2_4/B gnd MUX2X1_18/Y vdd MUX2X1
XMUX2X1_29 MUX2X1_29/A MUX2X1_29/B BUFX4_17/Y gnd MUX2X1_29/Y vdd MUX2X1
XNAND2X1_22 MUX2X1_69/B NAND3X1_2/Y gnd OAI21X1_23/C vdd NAND2X1
XNAND2X1_99 BUFX4_17/Y NAND2X1_99/B gnd NAND2X1_99/Y vdd NAND2X1
XNAND2X1_88 MUX2X1_67/B NAND2X1_83/B gnd NAND2X1_88/Y vdd NAND2X1
XFILL_14_3_1 gnd vdd FILL
XOAI21X1_191 NAND3X1_20/Y OAI21X1_191/B NAND3X1_19/Y gnd AOI21X1_24/B vdd OAI21X1
XNAND2X1_33 INVX1_12/A NAND3X1_4/Y gnd OAI21X1_34/C vdd NAND2X1
XAOI22X1_1 AOI22X1_1/A NOR2X1_9/Y INVX4_10/Y AOI22X1_1/D gnd AOI22X1_1/Y vdd AOI22X1
XNAND2X1_44 NAND2X1_44/A NAND3X1_5/Y gnd OAI21X1_45/C vdd NAND2X1
XNAND2X1_55 MUX2X1_73/A NAND3X1_6/Y gnd OAI21X1_56/C vdd NAND2X1
XOAI21X1_180 INVX1_37/Y MUX2X1_7/S OAI21X1_180/C gnd OAI21X1_180/Y vdd OAI21X1
XNAND2X1_11 MUX2X1_28/B NAND2X1_8/B gnd OAI21X1_12/C vdd NAND2X1
XNAND2X1_66 NAND2X1_66/A NAND3X1_8/Y gnd NAND2X1_66/Y vdd NAND2X1
XNAND2X1_77 INVX1_37/A NAND3X1_9/Y gnd NAND2X1_77/Y vdd NAND2X1
XOAI22X1_4 INVX1_16/Y OR2X2_3/B INVX4_3/A INVX1_15/Y gnd OAI22X1_4/Y vdd OAI22X1
XFILL_20_1_1 gnd vdd FILL
XFILL_11_1_1 gnd vdd FILL
XFILL_3_2_1 gnd vdd FILL
XDFFPOSX1_137 MUX2X1_2/B CLKBUF1_13/Y OAI21X1_57/Y gnd vdd DFFPOSX1
XFILL_19_2_1 gnd vdd FILL
XDFFPOSX1_159 MUX2X1_66/B CLKBUF1_13/Y OAI21X1_79/Y gnd vdd DFFPOSX1
XNAND2X1_218 INVX4_9/Y INVX8_12/A gnd OAI21X1_291/A vdd NAND2X1
XDFFPOSX1_148 NAND2X1_67/A CLKBUF1_3/Y OAI21X1_68/Y gnd vdd DFFPOSX1
XDFFPOSX1_126 INVX1_41/A CLKBUF1_5/Y OAI21X1_46/Y gnd vdd DFFPOSX1
XNAND2X1_207 MUX2X1_54/A NAND3X1_28/Y gnd NAND2X1_207/Y vdd NAND2X1
XDFFPOSX1_104 MUX2X1_75/B CLKBUF1_7/Y OAI21X1_24/Y gnd vdd DFFPOSX1
XDFFPOSX1_115 INVX1_20/A CLKBUF1_14/Y OAI21X1_35/Y gnd vdd DFFPOSX1
XBUFX4_64 INVX8_3/Y gnd BUFX4_64/Y vdd BUFX4
XBUFX4_42 BUFX4_42/A gnd BUFX4_42/Y vdd BUFX4
XBUFX4_20 BUFX4_20/A gnd MUX2X1_2/S vdd BUFX4
XBUFX4_53 INVX8_7/Y gnd BUFX4_53/Y vdd BUFX4
XBUFX4_31 INVX8_6/Y gnd BUFX4_31/Y vdd BUFX4
XINVX8_12 INVX8_12/A gnd BUFX4_50/A vdd INVX8
XFILL_10_1 gnd vdd FILL
XFILL_0_0_1 gnd vdd FILL
XFILL_16_0_1 gnd vdd FILL
XINVX1_7 INVX1_7/A gnd INVX1_7/Y vdd INVX1
XFILL_8_1_1 gnd vdd FILL
XNAND2X1_56 MUX2X1_2/B NAND3X1_7/Y gnd OAI21X1_57/C vdd NAND2X1
XAOI22X1_2 AOI22X1_2/A NOR2X1_9/Y INVX4_4/Y AOI22X1_2/D gnd AOI22X1_2/Y vdd AOI22X1
XNAND2X1_78 MUX2X1_66/B NAND3X1_9/Y gnd NAND2X1_78/Y vdd NAND2X1
XOAI21X1_192 INVX8_1/Y BUFX2_7/A NOR2X1_12/Y gnd AOI21X1_24/C vdd OAI21X1
XNAND2X1_89 INVX1_48/A NAND2X1_83/B gnd NAND2X1_89/Y vdd NAND2X1
XNAND2X1_45 INVX1_41/A NAND3X1_5/Y gnd NAND2X1_45/Y vdd NAND2X1
XNAND2X1_67 NAND2X1_67/A NAND3X1_8/Y gnd NAND2X1_67/Y vdd NAND2X1
XNAND2X1_23 MUX2X1_75/B NAND3X1_2/Y gnd OAI21X1_24/C vdd NAND2X1
XOAI21X1_181 BUFX4_32/Y BUFX4_12/Y OAI21X1_180/Y gnd AOI21X1_20/A vdd OAI21X1
XNAND2X1_12 MUX2X1_38/B NAND2X1_8/B gnd OAI21X1_13/C vdd NAND2X1
XMUX2X1_19 MUX2X1_19/A MUX2X1_19/B MUX2X1_7/S gnd MUX2X1_19/Y vdd MUX2X1
XNAND2X1_34 INVX1_20/A NAND3X1_4/Y gnd NAND2X1_34/Y vdd NAND2X1
XOAI21X1_170 INVX1_30/Y OR2X2_2/B NAND2X1_124/Y gnd OAI21X1_170/Y vdd OAI21X1
XOAI22X1_5 INVX1_21/Y OR2X2_3/B INVX4_3/A INVX1_20/Y gnd OAI22X1_5/Y vdd OAI22X1
XDFFPOSX1_138 MUX2X1_11/B CLKBUF1_8/Y OAI21X1_58/Y gnd vdd DFFPOSX1
XDFFPOSX1_127 NAND2X1_46/A CLKBUF1_8/Y OAI21X1_47/Y gnd vdd DFFPOSX1
XDFFPOSX1_105 INVX1_7/A CLKBUF1_3/Y OAI21X1_25/Y gnd vdd DFFPOSX1
XDFFPOSX1_116 INVX1_28/A CLKBUF1_3/Y OAI21X1_36/Y gnd vdd DFFPOSX1
XDFFPOSX1_149 INVX1_34/A CLKBUF1_7/Y OAI21X1_69/Y gnd vdd DFFPOSX1
XNAND2X1_208 MUX2X1_70/A NAND3X1_28/Y gnd OAI21X1_266/C vdd NAND2X1
XNAND2X1_219 NOR2X1_20/Y BUFX4_61/Y gnd BUFX4_44/A vdd NAND2X1
XINVX8_1 rw gnd INVX8_1/Y vdd INVX8
XBUFX4_32 BUFX4_33/A gnd BUFX4_32/Y vdd BUFX4
XBUFX4_10 BUFX4_9/A gnd BUFX4_10/Y vdd BUFX4
XBUFX4_43 BUFX4_42/A gnd BUFX4_43/Y vdd BUFX4
XBUFX4_21 BUFX4_20/A gnd MUX2X1_4/S vdd BUFX4
XBUFX4_65 BUFX4_67/A gnd BUFX4_65/Y vdd BUFX4
XFILL_10_2 gnd vdd FILL
XBUFX4_54 INVX8_7/Y gnd BUFX4_54/Y vdd BUFX4
XINVX1_8 INVX1_8/A gnd INVX1_8/Y vdd INVX1
XFILL_9_1 gnd vdd FILL
XFILL_1_3_0 gnd vdd FILL
XFILL_17_3_0 gnd vdd FILL
XOAI21X1_193 INVX1_48/Y MUX2X1_2/S OAI21X1_193/C gnd NAND2X1_148/A vdd OAI21X1
XOAI21X1_182 NAND3X1_17/Y AOI21X1_20/Y NOR2X1_1/B gnd AOI21X1_22/B vdd OAI21X1
XOAI21X1_171 OAI21X1_170/Y OAI22X1_8/Y INVX4_8/A gnd OAI21X1_171/Y vdd OAI21X1
XOAI21X1_160 OAI21X1_159/Y OAI22X1_5/Y INVX4_8/Y gnd OAI21X1_160/Y vdd OAI21X1
XNAND2X1_57 MUX2X1_11/B NAND3X1_7/Y gnd OAI21X1_58/C vdd NAND2X1
XNAND2X1_24 INVX1_7/A NAND3X1_3/Y gnd OAI21X1_25/C vdd NAND2X1
XNAND2X1_46 NAND2X1_46/A NAND3X1_5/Y gnd OAI21X1_47/C vdd NAND2X1
XNAND2X1_35 INVX1_28/A NAND3X1_4/Y gnd NAND2X1_35/Y vdd NAND2X1
XNAND2X1_79 INVX1_49/A NAND3X1_9/Y gnd OAI21X1_80/C vdd NAND2X1
XNAND2X1_13 MUX2X1_50/B NAND2X1_8/B gnd OAI21X1_14/C vdd NAND2X1
XNAND2X1_68 INVX1_34/A NAND3X1_8/Y gnd NAND2X1_68/Y vdd NAND2X1
XOAI22X1_6 INVX1_24/Y OR2X2_3/B INVX4_3/A INVX1_23/Y gnd OAI22X1_6/Y vdd OAI22X1
XFILL_6_2_0 gnd vdd FILL
XFILL_14_1_0 gnd vdd FILL
XDFFPOSX1_106 INVX1_15/A CLKBUF1_11/Y OAI21X1_26/Y gnd vdd DFFPOSX1
XDFFPOSX1_128 INVX1_53/A CLKBUF1_5/Y OAI21X1_48/Y gnd vdd DFFPOSX1
XDFFPOSX1_139 MUX2X1_20/B CLKBUF1_9/Y OAI21X1_59/Y gnd vdd DFFPOSX1
XNAND2X1_209 MUX2X1_76/A NAND3X1_28/Y gnd NAND2X1_209/Y vdd NAND2X1
XDFFPOSX1_117 INVX1_33/A CLKBUF1_7/Y OAI21X1_37/Y gnd vdd DFFPOSX1
XINVX8_2 datain[0] gnd INVX8_2/Y vdd INVX8
XFILL_3_0_0 gnd vdd FILL
XFILL_19_0_0 gnd vdd FILL
XBUFX4_66 BUFX4_67/A gnd INVX4_7/A vdd BUFX4
XBUFX4_44 BUFX4_44/A gnd BUFX4_44/Y vdd BUFX4
XBUFX4_11 BUFX4_9/A gnd OR2X2_4/B vdd BUFX4
XBUFX4_33 BUFX4_33/A gnd OR2X2_4/A vdd BUFX4
XBUFX4_55 INVX8_7/Y gnd BUFX4_55/Y vdd BUFX4
XBUFX4_22 BUFX4_20/A gnd INVX4_8/A vdd BUFX4
XINVX1_9 INVX1_9/A gnd INVX1_9/Y vdd INVX1
XFILL_1_3_1 gnd vdd FILL
XFILL_17_3_1 gnd vdd FILL
XOAI21X1_150 INVX1_11/Y OR2X2_2/B NAND2X1_105/Y gnd OAI21X1_151/A vdd OAI21X1
XOAI21X1_183 NOR2X1_2/A INVX1_38/Y NAND3X1_18/Y gnd OAI21X1_183/Y vdd OAI21X1
XOAI21X1_172 INVX8_1/Y BUFX2_4/A NOR2X1_12/Y gnd AOI21X1_17/C vdd OAI21X1
XOAI21X1_194 INVX1_49/Y INVX4_8/A OAI21X1_194/C gnd OAI21X1_194/Y vdd OAI21X1
XOAI21X1_161 INVX1_22/Y OR2X2_2/B NAND2X1_115/Y gnd OAI21X1_161/Y vdd OAI21X1
XNAND2X1_14 MUX2X1_60/B NAND2X1_8/B gnd OAI21X1_15/C vdd NAND2X1
XNAND2X1_25 INVX1_15/A NAND3X1_3/Y gnd OAI21X1_26/C vdd NAND2X1
XNAND2X1_69 INVX1_38/A NAND3X1_8/Y gnd OAI21X1_70/C vdd NAND2X1
XNAND2X1_47 INVX1_53/A NAND3X1_5/Y gnd NAND2X1_47/Y vdd NAND2X1
XNAND2X1_58 MUX2X1_20/B NAND3X1_7/Y gnd NAND2X1_58/Y vdd NAND2X1
XNAND2X1_36 INVX1_33/A NAND3X1_4/Y gnd NAND2X1_36/Y vdd NAND2X1
XOAI22X1_7 INVX1_29/Y OR2X2_3/B INVX4_3/A INVX1_28/Y gnd OAI22X1_7/Y vdd OAI22X1
XFILL_14_1_1 gnd vdd FILL
XFILL_6_2_1 gnd vdd FILL
XDFFPOSX1_129 MUX2X1_2/A CLKBUF1_13/Y OAI21X1_49/Y gnd vdd DFFPOSX1
XDFFPOSX1_107 INVX1_23/A CLKBUF1_3/Y OAI21X1_27/Y gnd vdd DFFPOSX1
XDFFPOSX1_118 INVX1_39/A CLKBUF1_11/Y OAI21X1_38/Y gnd vdd DFFPOSX1
XCLKBUF1_1 clk gnd CLKBUF1_1/Y vdd CLKBUF1
XINVX8_3 INVX8_3/A gnd INVX8_3/Y vdd INVX8
XFILL_3_0_1 gnd vdd FILL
XFILL_19_0_1 gnd vdd FILL
XBUFX4_67 BUFX4_67/A gnd BUFX4_67/Y vdd BUFX4
XBUFX4_45 BUFX4_44/A gnd BUFX4_45/Y vdd BUFX4
XBUFX4_12 BUFX4_9/A gnd BUFX4_12/Y vdd BUFX4
XBUFX4_34 BUFX4_33/A gnd NOR2X1_8/B vdd BUFX4
XBUFX4_56 INVX8_7/Y gnd BUFX4_56/Y vdd BUFX4
XBUFX4_23 BUFX4_20/A gnd MUX2X1_7/S vdd BUFX4
XNAND2X1_48 MUX2X1_2/A NAND3X1_6/Y gnd OAI21X1_49/C vdd NAND2X1
XNAND2X1_26 INVX1_23/A NAND3X1_3/Y gnd OAI21X1_27/C vdd NAND2X1
XOAI21X1_151 OAI21X1_151/A OAI22X1_3/Y INVX4_8/Y gnd NAND2X1_107/A vdd OAI21X1
XNAND2X1_37 INVX1_39/A NAND3X1_4/Y gnd NAND2X1_37/Y vdd NAND2X1
XOAI21X1_140 NAND3X1_11/Y AOI21X1_6/Y NOR2X1_1/B gnd AOI21X1_8/B vdd OAI21X1
XOAI21X1_184 OAI22X1_9/Y OAI21X1_183/Y INVX4_8/Y gnd OAI21X1_184/Y vdd OAI21X1
XOAI21X1_162 OAI21X1_161/Y OAI22X1_6/Y MUX2X1_2/S gnd NAND2X1_116/B vdd OAI21X1
XNAND2X1_15 MUX2X1_72/B NAND2X1_8/B gnd OAI21X1_16/C vdd NAND2X1
XNAND2X1_59 MUX2X1_29/B NAND3X1_7/Y gnd NAND2X1_59/Y vdd NAND2X1
XNAND2X1_190 MUX2X1_44/A NAND3X1_26/Y gnd NAND2X1_190/Y vdd NAND2X1
XOAI21X1_173 INVX1_33/Y MUX2X1_8/S NAND2X1_126/Y gnd AOI21X1_18/B vdd OAI21X1
XOAI21X1_195 NOR2X1_8/B BUFX4_10/Y OAI21X1_194/Y gnd AOI21X1_25/A vdd OAI21X1
XOAI22X1_8 INVX1_32/Y OR2X2_3/B INVX4_3/A INVX1_31/Y gnd OAI22X1_8/Y vdd OAI22X1
XFILL_19_1 gnd vdd FILL
XMUX2X1_1 MUX2X1_1/A MUX2X1_1/B MUX2X1_1/S gnd MUX2X1_3/A vdd MUX2X1
XDFFPOSX1_119 INVX1_45/A CLKBUF1_8/Y OAI21X1_39/Y gnd vdd DFFPOSX1
XDFFPOSX1_108 INVX1_31/A CLKBUF1_1/Y OAI21X1_28/Y gnd vdd DFFPOSX1
XCLKBUF1_2 clk gnd CLKBUF1_2/Y vdd CLKBUF1
XINVX8_4 datain[1] gnd INVX8_4/Y vdd INVX8
XDFFPOSX1_90 MUX2X1_10/B CLKBUF1_13/Y OAI21X1_10/Y gnd vdd DFFPOSX1
XBUFX4_24 INVX8_9/Y gnd BUFX4_24/Y vdd BUFX4
XBUFX4_57 INVX8_4/Y gnd BUFX4_57/Y vdd BUFX4
XBUFX4_68 BUFX4_67/A gnd BUFX4_68/Y vdd BUFX4
XBUFX4_13 BUFX4_9/A gnd MUX2X1_3/S vdd BUFX4
XBUFX4_46 BUFX4_44/A gnd BUFX4_46/Y vdd BUFX4
XBUFX4_35 BUFX4_33/A gnd BUFX4_35/Y vdd BUFX4
XFILL_12_2_0 gnd vdd FILL
XFILL_4_3_0 gnd vdd FILL
XOAI21X1_300 BUFX4_45/Y BUFX4_65/Y NAND2X1_128/B gnd OAI21X1_301/C vdd OAI21X1
XNAND3X1_1 BUFX4_61/Y NAND3X1_7/B INVX4_9/Y gnd NAND2X1_8/B vdd NAND3X1
XFILL_1_1_0 gnd vdd FILL
XNAND2X1_49 MUX2X1_11/A NAND3X1_6/Y gnd OAI21X1_50/C vdd NAND2X1
XFILL_17_1_0 gnd vdd FILL
XOAI21X1_130 BUFX4_58/Y NAND2X1_83/B NAND2X1_83/Y gnd OAI21X1_130/Y vdd OAI21X1
XNAND2X1_180 INVX1_40/A NAND3X1_25/Y gnd OAI21X1_224/C vdd NAND2X1
XNAND2X1_38 INVX1_45/A NAND3X1_4/Y gnd OAI21X1_39/C vdd NAND2X1
XOAI21X1_152 INVX1_14/Y OR2X2_2/B NAND2X1_106/Y gnd OAI21X1_152/Y vdd OAI21X1
XOAI21X1_185 OAI22X1_11/Y OAI22X1_10/Y MUX2X1_4/S gnd OAI21X1_185/Y vdd OAI21X1
XFILL_9_2_0 gnd vdd FILL
XOAI21X1_174 INVX1_34/Y BUFX4_18/Y NAND2X1_127/Y gnd AOI22X1_1/A vdd OAI21X1
XOAI21X1_141 INVX1_3/Y OR2X2_2/B NAND2X1_96/Y gnd OAI21X1_141/Y vdd OAI21X1
XNAND2X1_16 MUX2X1_4/B NAND3X1_2/Y gnd OAI21X1_17/C vdd NAND2X1
XNAND2X1_191 DFFPOSX1_38/Q NAND3X1_26/Y gnd OAI21X1_249/C vdd NAND2X1
XNAND2X1_27 INVX1_31/A NAND3X1_3/Y gnd OAI21X1_28/C vdd NAND2X1
XOAI21X1_163 INVX8_1/Y BUFX2_3/A NOR2X1_12/Y gnd AOI21X1_14/C vdd OAI21X1
XOAI21X1_196 NAND3X1_21/Y AOI21X1_25/Y NOR2X1_1/B gnd AOI21X1_27/B vdd OAI21X1
XOAI22X1_9 INVX4_3/A INVX1_39/Y INVX1_40/Y OR2X2_2/B gnd OAI22X1_9/Y vdd OAI22X1
XFILL_19_2 gnd vdd FILL
XMUX2X1_2 MUX2X1_2/A MUX2X1_2/B MUX2X1_2/S gnd MUX2X1_2/Y vdd MUX2X1
XCLKBUF1_3 clk gnd CLKBUF1_3/Y vdd CLKBUF1
XDFFPOSX1_109 NAND2X1_28/A CLKBUF1_6/Y OAI21X1_29/Y gnd vdd DFFPOSX1
XFILL_6_0_0 gnd vdd FILL
XBUFX4_25 INVX8_9/Y gnd BUFX4_25/Y vdd BUFX4
XBUFX4_58 INVX8_4/Y gnd BUFX4_58/Y vdd BUFX4
XBUFX4_36 INVX8_2/Y gnd BUFX4_36/Y vdd BUFX4
XBUFX4_14 BUFX4_9/A gnd MUX2X1_9/S vdd BUFX4
XBUFX4_47 BUFX4_44/A gnd OR2X2_1/A vdd BUFX4
XDFFPOSX1_80 INVX1_54/A CLKBUF1_5/Y OAI21X1_307/Y gnd vdd DFFPOSX1
XDFFPOSX1_91 MUX2X1_19/B CLKBUF1_9/Y OAI21X1_11/Y gnd vdd DFFPOSX1
XINVX8_5 datain[2] gnd BUFX4_1/A vdd INVX8
XBUFX4_69 INVX8_8/Y gnd BUFX4_69/Y vdd BUFX4
XFILL_12_2_1 gnd vdd FILL
XFILL_4_3_1 gnd vdd FILL
XOAI21X1_301 BUFX4_53/Y NAND3X1_30/Y OAI21X1_301/C gnd DFFPOSX1_77/D vdd OAI21X1
XNAND3X1_2 BUFX4_62/Y NAND3X1_2/B INVX4_9/Y gnd NAND3X1_2/Y vdd NAND3X1
XNAND2X1_181 INVX1_47/A NAND3X1_25/Y gnd OAI21X1_225/C vdd NAND2X1
XNAND2X1_17 MUX2X1_13/B NAND3X1_2/Y gnd OAI21X1_18/C vdd NAND2X1
XNAND2X1_192 MUX2X1_66/A NAND3X1_26/Y gnd OAI21X1_250/C vdd NAND2X1
XOAI21X1_153 OAI21X1_152/Y OAI22X1_4/Y BUFX4_18/Y gnd NAND2X1_107/B vdd OAI21X1
XOAI21X1_120 OR2X2_1/Y BUFX4_30/Y OAI21X1_120/C gnd OAI21X1_120/Y vdd OAI21X1
XOAI21X1_186 INVX8_1/Y BUFX2_6/A NOR2X1_12/Y gnd AOI21X1_22/C vdd OAI21X1
XFILL_9_2_1 gnd vdd FILL
XOAI21X1_175 INVX1_35/Y MUX2X1_2/S NAND2X1_128/Y gnd AOI22X1_1/D vdd OAI21X1
XOAI21X1_142 OAI21X1_141/Y OAI22X1_1/Y INVX4_8/Y gnd NAND2X1_98/A vdd OAI21X1
XOAI21X1_164 INVX1_25/Y INVX4_8/A NAND2X1_117/Y gnd OAI21X1_164/Y vdd OAI21X1
XOAI21X1_131 BUFX4_4/Y NAND2X1_83/B NAND2X1_84/Y gnd OAI21X1_131/Y vdd OAI21X1
XFILL_1_1_1 gnd vdd FILL
XNAND2X1_39 INVX1_51/A NAND3X1_4/Y gnd OAI21X1_40/C vdd NAND2X1
XNAND2X1_170 INVX1_30/A NAND3X1_24/Y gnd NAND2X1_170/Y vdd NAND2X1
XOAI21X1_197 NOR2X1_2/A INVX1_50/Y NAND3X1_22/Y gnd OAI21X1_198/B vdd OAI21X1
XNAND2X1_28 NAND2X1_28/A NAND3X1_3/Y gnd NAND2X1_28/Y vdd NAND2X1
XFILL_17_1_1 gnd vdd FILL
XFILL_19_3 gnd vdd FILL
XCLKBUF1_4 clk gnd CLKBUF1_4/Y vdd CLKBUF1
XMUX2X1_3 MUX2X1_3/A MUX2X1_2/Y MUX2X1_3/S gnd MUX2X1_3/Y vdd MUX2X1
XFILL_6_0_1 gnd vdd FILL
XBUFX4_59 INVX8_4/Y gnd BUFX4_59/Y vdd BUFX4
XDFFPOSX1_70 MUX2X1_56/B CLKBUF1_12/Y OAI21X1_287/Y gnd vdd DFFPOSX1
XBUFX4_48 BUFX4_50/A gnd BUFX4_48/Y vdd BUFX4
XBUFX4_26 INVX8_9/Y gnd BUFX4_26/Y vdd BUFX4
XBUFX4_37 INVX8_2/Y gnd BUFX4_37/Y vdd BUFX4
XDFFPOSX1_81 MUX2X1_4/A CLKBUF1_11/Y OAI21X1_1/Y gnd vdd DFFPOSX1
XDFFPOSX1_92 MUX2X1_28/B CLKBUF1_5/Y OAI21X1_12/Y gnd vdd DFFPOSX1
XBUFX4_15 BUFX4_20/A gnd MUX2X1_8/S vdd BUFX4
XINVX8_6 datain[3] gnd INVX8_6/Y vdd INVX8
XOAI21X1_302 BUFX4_44/Y INVX4_7/A INVX1_42/A gnd OAI21X1_303/C vdd OAI21X1
XOAI21X1_110 OAI21X1_98/A BUFX4_25/Y OAI21X1_110/C gnd OAI21X1_110/Y vdd OAI21X1
XOAI21X1_187 INVX1_45/Y MUX2X1_7/S OAI21X1_187/C gnd AOI21X1_23/B vdd OAI21X1
XOAI21X1_132 BUFX4_29/Y NAND2X1_83/B NAND2X1_85/Y gnd OAI21X1_132/Y vdd OAI21X1
XOAI21X1_143 INVX1_6/Y OR2X2_2/B NAND2X1_97/Y gnd OAI21X1_144/A vdd OAI21X1
XNAND3X1_3 BUFX4_64/Y NOR2X1_1/Y INVX4_7/Y gnd NAND3X1_3/Y vdd NAND3X1
XOAI21X1_154 INVX8_1/Y BUFX2_2/A NOR2X1_12/Y gnd AOI21X1_11/C vdd OAI21X1
XOAI21X1_121 BUFX4_46/Y OR2X2_1/B INVX1_35/A gnd OAI21X1_122/C vdd OAI21X1
XOAI21X1_165 INVX1_26/Y MUX2X1_8/S NAND2X1_119/Y gnd OAI21X1_165/Y vdd OAI21X1
XOAI21X1_198 OAI22X1_12/Y OAI21X1_198/B INVX4_8/Y gnd OAI21X1_198/Y vdd OAI21X1
XOAI21X1_176 INVX4_5/Y INVX4_6/Y NAND2X1_129/Y gnd OAI21X1_176/Y vdd OAI21X1
XNAND2X1_160 MUX2X1_19/A NAND3X1_23/Y gnd OAI21X1_204/C vdd NAND2X1
XNAND2X1_29 INVX1_43/A NAND3X1_3/Y gnd OAI21X1_30/C vdd NAND2X1
XNAND2X1_182 INVX1_52/A NAND3X1_25/Y gnd OAI21X1_226/C vdd NAND2X1
XNAND2X1_18 MUX2X1_22/B NAND3X1_2/Y gnd NAND2X1_18/Y vdd NAND2X1
XNAND2X1_171 MUX2X1_37/A NAND3X1_24/Y gnd OAI21X1_214/C vdd NAND2X1
XNAND2X1_193 NAND2X1_149/B NAND3X1_26/Y gnd OAI21X1_251/C vdd NAND2X1
XFILL_10_3_0 gnd vdd FILL
XMUX2X1_4 MUX2X1_4/A MUX2X1_4/B MUX2X1_4/S gnd MUX2X1_6/A vdd MUX2X1
XCLKBUF1_5 clk gnd CLKBUF1_5/Y vdd CLKBUF1
XDFFPOSX1_71 MUX2X1_63/B CLKBUF1_12/Y OAI21X1_289/Y gnd vdd DFFPOSX1
XDFFPOSX1_82 NAND2X1_1/A CLKBUF1_10/Y OAI21X1_2/Y gnd vdd DFFPOSX1
XDFFPOSX1_93 MUX2X1_38/B CLKBUF1_9/Y OAI21X1_13/Y gnd vdd DFFPOSX1
XINVX8_7 datain[4] gnd INVX8_7/Y vdd INVX8
XDFFPOSX1_60 DFFPOSX1_60/Q CLKBUF1_6/Y OAI21X1_271/Y gnd vdd DFFPOSX1
XBUFX4_49 BUFX4_50/A gnd BUFX4_49/Y vdd BUFX4
XFILL_15_2_0 gnd vdd FILL
XBUFX4_27 INVX8_9/Y gnd BUFX4_27/Y vdd BUFX4
XBUFX4_38 INVX8_2/Y gnd BUFX4_38/Y vdd BUFX4
XFILL_7_3_0 gnd vdd FILL
XBUFX4_16 BUFX4_20/A gnd BUFX4_16/Y vdd BUFX4
XINVX4_1 INVX4_1/A gnd INVX4_1/Y vdd INVX4
XOAI21X1_303 BUFX4_72/Y NAND3X1_30/Y OAI21X1_303/C gnd DFFPOSX1_78/D vdd OAI21X1
XFILL_12_0_0 gnd vdd FILL
XBUFX4_1 BUFX4_1/A gnd BUFX4_1/Y vdd BUFX4
XFILL_4_1_0 gnd vdd FILL
XOAI21X1_100 OAI21X1_98/A BUFX4_59/Y OAI21X1_99/Y gnd OAI21X1_100/Y vdd OAI21X1
XOAI21X1_111 INVX4_2/Y BUFX4_49/Y MUX2X1_79/A gnd OAI21X1_112/C vdd OAI21X1
XOAI21X1_188 INVX1_46/Y BUFX4_17/Y NAND2X1_141/Y gnd AOI22X1_2/A vdd OAI21X1
XOAI21X1_144 OAI21X1_144/A OAI22X1_2/Y BUFX4_16/Y gnd NAND2X1_98/B vdd OAI21X1
XNAND3X1_4 BUFX4_64/Y NOR2X1_1/Y INVX4_9/Y gnd NAND3X1_4/Y vdd NAND3X1
XOAI21X1_166 NOR2X1_8/B BUFX4_10/Y OAI21X1_165/Y gnd AOI21X1_15/A vdd OAI21X1
XOAI21X1_122 OR2X2_1/Y BUFX4_53/Y OAI21X1_122/C gnd OAI21X1_122/Y vdd OAI21X1
XOAI21X1_199 OAI22X1_14/Y OAI22X1_13/Y MUX2X1_2/S gnd NAND2X1_153/B vdd OAI21X1
XOAI21X1_155 INVX1_17/Y MUX2X1_2/S NAND2X1_108/Y gnd OAI21X1_155/Y vdd OAI21X1
XOAI21X1_133 BUFX4_53/Y NAND2X1_83/B NAND2X1_86/Y gnd OAI21X1_133/Y vdd OAI21X1
XOAI21X1_177 NAND3X1_16/Y OAI21X1_176/Y NAND3X1_15/Y gnd AOI21X1_19/B vdd OAI21X1
XNAND2X1_183 INVX2_2/A INVX2_1/A gnd OR2X2_3/B vdd NAND2X1
XNAND2X1_172 INVX1_44/A NAND3X1_24/Y gnd NAND2X1_172/Y vdd NAND2X1
XNAND2X1_19 MUX2X1_31/B NAND3X1_2/Y gnd OAI21X1_20/C vdd NAND2X1
XNAND2X1_194 MUX2X1_5/B NAND3X1_27/Y gnd NAND2X1_194/Y vdd NAND2X1
XNAND2X1_161 MUX2X1_28/A NAND3X1_23/Y gnd OAI21X1_205/C vdd NAND2X1
XNAND2X1_150 INVX4_3/Y MUX2X1_74/Y gnd NAND3X1_21/A vdd NAND2X1
XFILL_5_1 gnd vdd FILL
XFILL_10_3_1 gnd vdd FILL
XOAI21X1_1 BUFX4_38/Y NAND2X1_5/B OAI21X1_1/C gnd OAI21X1_1/Y vdd OAI21X1
XFILL_9_0_0 gnd vdd FILL
XMUX2X1_5 MUX2X1_5/A MUX2X1_5/B INVX4_8/A gnd MUX2X1_5/Y vdd MUX2X1
XCLKBUF1_6 clk gnd CLKBUF1_6/Y vdd CLKBUF1
XINVX8_8 datain[5] gnd INVX8_8/Y vdd INVX8
XDFFPOSX1_72 MUX2X1_78/B CLKBUF1_4/Y OAI21X1_291/Y gnd vdd DFFPOSX1
XDFFPOSX1_50 MUX2X1_14/A CLKBUF1_13/Y DFFPOSX1_50/D gnd vdd DFFPOSX1
XFILL_15_2_1 gnd vdd FILL
XBUFX4_39 INVX8_2/Y gnd BUFX4_39/Y vdd BUFX4
XFILL_7_3_1 gnd vdd FILL
XDFFPOSX1_61 MUX2X1_45/A CLKBUF1_5/Y OAI21X1_272/Y gnd vdd DFFPOSX1
XDFFPOSX1_94 MUX2X1_50/B CLKBUF1_2/Y OAI21X1_14/Y gnd vdd DFFPOSX1
XDFFPOSX1_83 MUX2X1_22/A CLKBUF1_7/Y OAI21X1_3/Y gnd vdd DFFPOSX1
XBUFX4_17 BUFX4_20/A gnd BUFX4_17/Y vdd BUFX4
XBUFX4_28 INVX8_6/Y gnd BUFX4_28/Y vdd BUFX4
XOAI21X1_304 BUFX4_44/Y INVX4_7/A MUX2X1_59/A gnd OAI21X1_305/C vdd OAI21X1
XBUFX4_2 BUFX4_1/A gnd BUFX4_2/Y vdd BUFX4
XFILL_4_1_1 gnd vdd FILL
XINVX4_2 INVX4_2/A gnd INVX4_2/Y vdd INVX4
XFILL_12_0_1 gnd vdd FILL
XOAI21X1_112 OAI21X1_98/A BUFX4_40/Y OAI21X1_112/C gnd OAI21X1_112/Y vdd OAI21X1
XOAI21X1_101 INVX4_2/Y BUFX4_49/Y MUX2X1_26/A gnd OAI21X1_102/C vdd OAI21X1
XNAND3X1_5 BUFX4_64/Y NOR2X1_2/Y INVX4_7/Y gnd NAND3X1_5/Y vdd NAND3X1
XNAND2X1_173 NAND2X1_173/A NAND3X1_24/Y gnd NAND2X1_173/Y vdd NAND2X1
XNAND2X1_195 MUX2X1_14/B NAND3X1_27/Y gnd OAI21X1_253/C vdd NAND2X1
XOAI21X1_189 INVX1_47/Y MUX2X1_1/S OAI21X1_189/C gnd AOI22X1_2/D vdd OAI21X1
XNAND2X1_140 INVX4_8/A NAND2X1_30/A gnd OAI21X1_187/C vdd NAND2X1
XNAND2X1_184 INVX4_7/Y INVX8_12/A gnd OAI21X1_231/A vdd NAND2X1
XOAI21X1_123 OR2X2_1/A INVX4_9/A NAND3X1_18/C gnd OAI21X1_123/Y vdd OAI21X1
XOAI21X1_178 INVX8_1/Y BUFX2_5/A NOR2X1_12/Y gnd AOI21X1_19/C vdd OAI21X1
XOAI21X1_145 INVX8_1/Y BUFX2_1/A NOR2X1_12/Y gnd AOI21X1_8/C vdd OAI21X1
XOAI21X1_167 NAND3X1_14/Y AOI21X1_15/Y NOR2X1_1/B gnd AOI21X1_17/B vdd OAI21X1
XOAI21X1_134 BUFX4_70/Y NAND2X1_83/B NAND2X1_87/Y gnd OAI21X1_134/Y vdd OAI21X1
XNAND2X1_151 INVX4_4/Y MUX2X1_77/Y gnd NAND3X1_21/B vdd NAND2X1
XNAND2X1_162 MUX2X1_38/A NAND3X1_23/Y gnd NAND2X1_162/Y vdd NAND2X1
XOAI21X1_156 INVX1_18/Y INVX4_8/A NAND2X1_110/Y gnd OAI21X1_156/Y vdd OAI21X1
XFILL_5_2 gnd vdd FILL
XOAI21X1_2 BUFX4_58/Y NAND2X1_5/B NAND2X1_1/Y gnd OAI21X1_2/Y vdd OAI21X1
XFILL_9_0_1 gnd vdd FILL
XMUX2X1_6 MUX2X1_6/A MUX2X1_5/Y BUFX4_12/Y gnd MUX2X1_6/Y vdd MUX2X1
XCLKBUF1_7 clk gnd CLKBUF1_7/Y vdd CLKBUF1
XINVX8_9 datain[6] gnd INVX8_9/Y vdd INVX8
XDFFPOSX1_95 MUX2X1_60/B CLKBUF1_13/Y OAI21X1_15/Y gnd vdd DFFPOSX1
XDFFPOSX1_73 INVX1_8/A CLKBUF1_3/Y DFFPOSX1_73/D gnd vdd DFFPOSX1
XDFFPOSX1_62 NAND2X1_133/B CLKBUF1_11/Y OAI21X1_273/Y gnd vdd DFFPOSX1
XDFFPOSX1_51 MUX2X1_23/A CLKBUF1_6/Y OAI21X1_262/Y gnd vdd DFFPOSX1
XDFFPOSX1_84 MUX2X1_31/A CLKBUF1_2/Y OAI21X1_4/Y gnd vdd DFFPOSX1
XDFFPOSX1_40 NAND2X1_149/B CLKBUF1_6/Y OAI21X1_251/Y gnd vdd DFFPOSX1
XBUFX4_18 BUFX4_20/A gnd BUFX4_18/Y vdd BUFX4
XBUFX4_29 INVX8_6/Y gnd BUFX4_29/Y vdd BUFX4
XOAI21X1_305 BUFX4_27/Y NAND3X1_30/Y OAI21X1_305/C gnd DFFPOSX1_79/D vdd OAI21X1
XBUFX4_3 BUFX4_1/A gnd BUFX4_3/Y vdd BUFX4
XINVX4_3 INVX4_3/A gnd INVX4_3/Y vdd INVX4
XNAND3X1_6 BUFX4_61/Y NAND3X1_7/B INVX4_2/A gnd NAND3X1_6/Y vdd NAND3X1
XOAI21X1_102 OAI21X1_98/A BUFX4_1/Y OAI21X1_102/C gnd OAI21X1_102/Y vdd OAI21X1
XOAI21X1_135 BUFX4_24/Y NAND2X1_83/B NAND2X1_88/Y gnd OAI21X1_135/Y vdd OAI21X1
XNAND2X1_141 BUFX4_16/Y NAND2X1_46/A gnd NAND2X1_141/Y vdd NAND2X1
XOAI21X1_146 INVX1_9/Y BUFX4_18/Y NAND2X1_99/Y gnd NAND2X1_100/A vdd OAI21X1
XFILL_13_3_0 gnd vdd FILL
XNAND2X1_130 INVX4_10/Y MUX2X1_43/Y gnd NAND3X1_16/A vdd NAND2X1
XOAI21X1_124 OR2X2_1/Y BUFX4_71/Y OAI21X1_123/Y gnd OAI21X1_124/Y vdd OAI21X1
XOAI21X1_168 INVX1_27/Y OR2X2_2/B NAND2X1_123/Y gnd OAI21X1_168/Y vdd OAI21X1
XNAND2X1_152 INVX4_10/Y MUX2X1_80/Y gnd NAND3X1_21/C vdd NAND2X1
XOAI21X1_113 BUFX4_46/Y OR2X2_1/B INVX1_5/A gnd OAI21X1_114/C vdd OAI21X1
XOAI21X1_179 INVX1_36/Y MUX2X1_4/S OAI21X1_179/C gnd NAND2X1_134/A vdd OAI21X1
XOAI21X1_157 NOR2X1_8/B BUFX4_9/Y OAI21X1_156/Y gnd AOI21X1_12/A vdd OAI21X1
XNAND2X1_174 INVX1_56/A NAND3X1_24/Y gnd OAI21X1_217/C vdd NAND2X1
XNAND2X1_163 MUX2X1_50/A NAND3X1_23/Y gnd NAND2X1_163/Y vdd NAND2X1
XNAND2X1_185 INVX2_2/Y INVX2_1/Y gnd NOR2X1_2/A vdd NAND2X1
XNAND2X1_196 MUX2X1_23/B NAND3X1_27/Y gnd OAI21X1_254/C vdd NAND2X1
XOAI21X1_3 BUFX4_3/Y NAND2X1_5/B NAND2X1_2/Y gnd OAI21X1_3/Y vdd OAI21X1
XMUX2X1_7 MUX2X1_7/A MUX2X1_7/B MUX2X1_7/S gnd MUX2X1_9/A vdd MUX2X1
XCLKBUF1_8 clk gnd CLKBUF1_8/Y vdd CLKBUF1
XFILL_10_1_0 gnd vdd FILL
XFILL_2_2_0 gnd vdd FILL
XFILL_18_2_0 gnd vdd FILL
XDFFPOSX1_30 MUX2X1_56/A CLKBUF1_12/Y OAI21X1_239/Y gnd vdd DFFPOSX1
XDFFPOSX1_63 MUX2X1_67/A CLKBUF1_10/Y OAI21X1_274/Y gnd vdd DFFPOSX1
XDFFPOSX1_74 INVX1_16/A CLKBUF1_3/Y DFFPOSX1_74/D gnd vdd DFFPOSX1
XBUFX4_19 BUFX4_20/A gnd MUX2X1_1/S vdd BUFX4
XDFFPOSX1_96 MUX2X1_72/B CLKBUF1_14/Y OAI21X1_16/Y gnd vdd DFFPOSX1
XDFFPOSX1_85 NAND2X1_4/A CLKBUF1_7/Y OAI21X1_5/Y gnd vdd DFFPOSX1
XDFFPOSX1_41 MUX2X1_5/B CLKBUF1_2/Y DFFPOSX1_41/D gnd vdd DFFPOSX1
XDFFPOSX1_52 MUX2X1_32/A CLKBUF1_2/Y OAI21X1_263/Y gnd vdd DFFPOSX1
XFILL_15_1 gnd vdd FILL
XFILL_15_0_0 gnd vdd FILL
XFILL_7_1_0 gnd vdd FILL
XOAI21X1_306 BUFX4_45/Y BUFX4_65/Y INVX1_54/A gnd OAI21X1_306/Y vdd OAI21X1
XBUFX4_4 BUFX4_1/A gnd BUFX4_4/Y vdd BUFX4
XINVX4_4 OR2X2_2/B gnd INVX4_4/Y vdd INVX4
XNAND3X1_7 BUFX4_62/Y NAND3X1_7/B INVX4_1/A gnd NAND3X1_7/Y vdd NAND3X1
XOAI21X1_103 INVX4_2/Y BUFX4_50/Y MUX2X1_35/A gnd OAI21X1_104/C vdd OAI21X1
XNAND2X1_164 MUX2X1_60/A NAND3X1_23/Y gnd NAND2X1_164/Y vdd NAND2X1
XNAND2X1_142 BUFX4_18/Y NAND2X1_173/A gnd OAI21X1_189/C vdd NAND2X1
XOAI21X1_125 BUFX4_44/Y BUFX4_8/Y MUX2X1_59/B gnd OAI21X1_126/C vdd OAI21X1
XOAI21X1_147 INVX1_10/Y MUX2X1_2/S OAI21X1_147/C gnd OAI21X1_148/C vdd OAI21X1
XNAND2X1_186 NAND2X1_92/A NAND3X1_26/Y gnd OAI21X1_244/C vdd NAND2X1
XOAI21X1_136 BUFX4_40/Y NAND2X1_83/B NAND2X1_89/Y gnd OAI21X1_136/Y vdd OAI21X1
XOAI21X1_169 OAI21X1_168/Y OAI22X1_7/Y INVX4_8/Y gnd NAND2X1_125/A vdd OAI21X1
XOAI21X1_114 OR2X2_1/Y BUFX4_37/Y OAI21X1_114/C gnd OAI21X1_114/Y vdd OAI21X1
XBUFX2_1 BUFX2_1/A gnd dataout[0] vdd BUFX2
XNAND2X1_175 INVX1_3/A NAND3X1_25/Y gnd OAI21X1_219/C vdd NAND2X1
XOAI21X1_158 NAND3X1_13/Y AOI21X1_12/Y NOR2X1_1/B gnd AOI21X1_14/B vdd OAI21X1
XNAND2X1_197 MUX2X1_32/B NAND3X1_27/Y gnd NAND2X1_197/Y vdd NAND2X1
XNAND2X1_131 NOR2X1_9/Y MUX2X1_46/Y gnd NAND3X1_16/B vdd NAND2X1
XNAND2X1_153 OAI21X1_198/Y NAND2X1_153/B gnd AOI21X1_26/B vdd NAND2X1
XNAND2X1_120 INVX4_3/Y MUX2X1_30/Y gnd NAND3X1_14/A vdd NAND2X1
XFILL_13_3_1 gnd vdd FILL
XAOI21X1_1 cas INVX4_5/Y NOR2X1_3/Y gnd AOI21X1_1/Y vdd AOI21X1
XINVX2_1 INVX2_1/A gnd INVX2_1/Y vdd INVX2
XAOI21X1_20 AOI21X1_20/A AOI21X1_20/B NOR2X1_2/A gnd AOI21X1_20/Y vdd AOI21X1
XOAI21X1_4 BUFX4_28/Y NAND2X1_5/B OAI21X1_4/C gnd OAI21X1_4/Y vdd OAI21X1
XMUX2X1_8 MUX2X1_8/A MUX2X1_8/B MUX2X1_8/S gnd MUX2X1_8/Y vdd MUX2X1
XFILL_10_1_1 gnd vdd FILL
XCLKBUF1_9 clk gnd CLKBUF1_9/Y vdd CLKBUF1
XFILL_2_2_1 gnd vdd FILL
XFILL_18_2_1 gnd vdd FILL
XDFFPOSX1_31 MUX2X1_63/A CLKBUF1_8/Y DFFPOSX1_31/D gnd vdd DFFPOSX1
XDFFPOSX1_42 MUX2X1_14/B CLKBUF1_10/Y DFFPOSX1_42/D gnd vdd DFFPOSX1
XDFFPOSX1_75 INVX1_24/A CLKBUF1_3/Y DFFPOSX1_75/D gnd vdd DFFPOSX1
XDFFPOSX1_64 NAND2X1_147/B CLKBUF1_1/Y DFFPOSX1_64/D gnd vdd DFFPOSX1
XDFFPOSX1_20 INVX1_27/A CLKBUF1_1/Y DFFPOSX1_20/D gnd vdd DFFPOSX1
XDFFPOSX1_97 MUX2X1_4/B CLKBUF1_11/Y OAI21X1_17/Y gnd vdd DFFPOSX1
XDFFPOSX1_53 MUX2X1_48/A CLKBUF1_11/Y OAI21X1_264/Y gnd vdd DFFPOSX1
XDFFPOSX1_86 NAND2X1_5/A CLKBUF1_2/Y OAI21X1_6/Y gnd vdd DFFPOSX1
XFILL_15_0_1 gnd vdd FILL
XFILL_7_1_1 gnd vdd FILL
XOAI21X1_307 BUFX4_40/Y NAND3X1_30/Y OAI21X1_306/Y gnd OAI21X1_307/Y vdd OAI21X1
XBUFX4_5 BUFX4_6/A gnd OR2X2_1/B vdd BUFX4
XINVX4_5 INVX4_5/A gnd INVX4_5/Y vdd INVX4
XOAI21X1_104 OAI21X1_98/A BUFX4_29/Y OAI21X1_104/C gnd OAI21X1_104/Y vdd OAI21X1
XNAND2X1_143 INVX4_3/Y MUX2X1_62/Y gnd OAI21X1_190/C vdd NAND2X1
XOAI21X1_126 OR2X2_1/Y BUFX4_27/Y OAI21X1_126/C gnd OAI21X1_126/Y vdd OAI21X1
XBUFX2_2 BUFX2_2/A gnd dataout[1] vdd BUFX2
XOAI21X1_148 BUFX4_32/Y BUFX4_12/Y OAI21X1_148/C gnd AOI21X1_9/A vdd OAI21X1
XOAI21X1_137 INVX1_1/Y BUFX4_16/Y NAND2X1_90/Y gnd NAND2X1_91/A vdd OAI21X1
XNAND3X1_8 BUFX4_64/Y NOR2X1_2/Y INVX4_9/Y gnd NAND3X1_8/Y vdd NAND3X1
XOAI21X1_115 OR2X2_1/A INVX4_9/A INVX1_13/A gnd OAI21X1_116/C vdd OAI21X1
XNAND2X1_121 INVX4_4/Y MUX2X1_33/Y gnd NAND3X1_14/B vdd NAND2X1
XNAND2X1_110 MUX2X1_4/S DFFPOSX1_35/Q gnd NAND2X1_110/Y vdd NAND2X1
XNAND2X1_132 INVX4_4/Y MUX2X1_49/Y gnd NAND3X1_16/C vdd NAND2X1
XOAI21X1_159 INVX1_19/Y OR2X2_2/B NAND2X1_114/Y gnd OAI21X1_159/Y vdd OAI21X1
XNAND2X1_187 DFFPOSX1_34/Q NAND3X1_26/Y gnd OAI21X1_245/C vdd NAND2X1
XNAND2X1_176 INVX1_11/A NAND3X1_25/Y gnd OAI21X1_220/C vdd NAND2X1
XNAND2X1_198 MUX2X1_48/B NAND3X1_27/Y gnd OAI21X1_256/C vdd NAND2X1
XNAND2X1_154 ras en gnd NOR2X1_12/A vdd NAND2X1
XINVX2_2 INVX2_2/A gnd INVX2_2/Y vdd INVX2
XAOI21X1_2 ras INVX2_2/Y NOR2X1_4/Y gnd AOI21X1_2/Y vdd AOI21X1
XNAND2X1_165 MUX2X1_72/A NAND3X1_23/Y gnd NAND2X1_165/Y vdd NAND2X1
XAOI21X1_21 BUFX4_32/Y AOI21X1_21/B rw gnd AOI21X1_22/A vdd AOI21X1
XAOI21X1_10 BUFX4_32/Y AOI21X1_10/B rw gnd AOI21X1_10/Y vdd AOI21X1
XOAI21X1_5 BUFX4_56/Y NAND2X1_5/B OAI21X1_5/C gnd OAI21X1_5/Y vdd OAI21X1
XMUX2X1_9 MUX2X1_9/A MUX2X1_8/Y MUX2X1_9/S gnd MUX2X1_9/Y vdd MUX2X1
XDFFPOSX1_10 INVX1_14/A CLKBUF1_8/Y DFFPOSX1_10/D gnd vdd DFFPOSX1
XDFFPOSX1_65 MUX2X1_7/B CLKBUF1_12/Y DFFPOSX1_65/D gnd vdd DFFPOSX1
XDFFPOSX1_32 MUX2X1_78/A CLKBUF1_4/Y OAI21X1_243/Y gnd vdd DFFPOSX1
XDFFPOSX1_98 MUX2X1_13/B CLKBUF1_10/Y OAI21X1_18/Y gnd vdd DFFPOSX1
XDFFPOSX1_76 INVX1_32/A CLKBUF1_3/Y DFFPOSX1_76/D gnd vdd DFFPOSX1