* XSpice netlist created from SPICE and liberty sources by spi2xspice.py
*SPICE netlist created from BLIF module ram32_sdram_2split by blif2BSpice
.subckt ram32_sdram_2split a_vdd a_gnd a_en a_rw a_clk a_ras a_cas a_datain_0_ a_datain_1_ a_datain_2_ a_datain_3_ a_datain_4_ a_datain_5_ a_datain_6_ a_datain_7_ a_address_0_ a_address_1_ a_address_2_ a_address_3_ a_address_4_ a_dataout_0_ a_dataout_1_ a_dataout_2_ a_dataout_3_ a_dataout_4_ a_dataout_5_ a_dataout_6_ a_dataout_7_
ACLKBUF1_1 [clk_bF$buf3] clk_bF$buf3_bF$buf3 d_lut_CLKBUF1
ACLKBUF1_2 [clk_bF$buf3] clk_bF$buf3_bF$buf2 d_lut_CLKBUF1
ACLKBUF1_3 [clk_bF$buf3] clk_bF$buf3_bF$buf1 d_lut_CLKBUF1
ACLKBUF1_4 [clk_bF$buf3] clk_bF$buf3_bF$buf0 d_lut_CLKBUF1
ACLKBUF1_5 [clk_bF$buf4] clk_bF$buf4_bF$buf3 d_lut_CLKBUF1
ACLKBUF1_6 [clk_bF$buf4] clk_bF$buf4_bF$buf2 d_lut_CLKBUF1
ACLKBUF1_7 [clk_bF$buf4] clk_bF$buf4_bF$buf1 d_lut_CLKBUF1
ACLKBUF1_8 [clk_bF$buf4] clk_bF$buf4_bF$buf0 d_lut_CLKBUF1
ACLKBUF1_9 [clk_bF$buf5] clk_bF$buf5_bF$buf3 d_lut_CLKBUF1
ACLKBUF1_10 [clk_bF$buf5] clk_bF$buf5_bF$buf2 d_lut_CLKBUF1
ACLKBUF1_11 [clk_bF$buf5] clk_bF$buf5_bF$buf1 d_lut_CLKBUF1
ACLKBUF1_12 [clk_bF$buf5] clk_bF$buf5_bF$buf0 d_lut_CLKBUF1
ACLKBUF1_13 [clk_bF$buf6] clk_bF$buf6_bF$buf3 d_lut_CLKBUF1
ACLKBUF1_14 [clk_bF$buf6] clk_bF$buf6_bF$buf2 d_lut_CLKBUF1
ACLKBUF1_15 [clk_bF$buf6] clk_bF$buf6_bF$buf1 d_lut_CLKBUF1
ACLKBUF1_16 [clk_bF$buf6] clk_bF$buf6_bF$buf0 d_lut_CLKBUF1
ACLKBUF1_17 [clk_bF$buf7] clk_bF$buf7_bF$buf3 d_lut_CLKBUF1
ACLKBUF1_18 [clk_bF$buf7] clk_bF$buf7_bF$buf2 d_lut_CLKBUF1
ACLKBUF1_19 [clk_bF$buf7] clk_bF$buf7_bF$buf1 d_lut_CLKBUF1
ACLKBUF1_20 [clk_bF$buf7] clk_bF$buf7_bF$buf0 d_lut_CLKBUF1
ACLKBUF1_21 [clk_bF$buf8] clk_bF$buf8_bF$buf3 d_lut_CLKBUF1
ACLKBUF1_22 [clk_bF$buf8] clk_bF$buf8_bF$buf2 d_lut_CLKBUF1
ACLKBUF1_23 [clk_bF$buf8] clk_bF$buf8_bF$buf1 d_lut_CLKBUF1
ACLKBUF1_24 [clk_bF$buf8] clk_bF$buf8_bF$buf0 d_lut_CLKBUF1
ACLKBUF1_25 [clk_bF$buf9] clk_bF$buf9_bF$buf3 d_lut_CLKBUF1
ACLKBUF1_26 [clk_bF$buf9] clk_bF$buf9_bF$buf2 d_lut_CLKBUF1
ACLKBUF1_27 [clk_bF$buf9] clk_bF$buf9_bF$buf1 d_lut_CLKBUF1
ACLKBUF1_28 [clk_bF$buf9] clk_bF$buf9_bF$buf0 d_lut_CLKBUF1
ACLKBUF1_29 [clk_bF$buf10] clk_bF$buf10_bF$buf3 d_lut_CLKBUF1
ACLKBUF1_30 [clk_bF$buf10] clk_bF$buf10_bF$buf2 d_lut_CLKBUF1
ACLKBUF1_31 [clk_bF$buf10] clk_bF$buf10_bF$buf1 d_lut_CLKBUF1
ACLKBUF1_32 [clk_bF$buf10] clk_bF$buf10_bF$buf0 d_lut_CLKBUF1
ACLKBUF1_33 [clk_bF$buf11] clk_bF$buf11_bF$buf3 d_lut_CLKBUF1
ACLKBUF1_34 [clk_bF$buf11] clk_bF$buf11_bF$buf2 d_lut_CLKBUF1
ACLKBUF1_35 [clk_bF$buf11] clk_bF$buf11_bF$buf1 d_lut_CLKBUF1
ACLKBUF1_36 [clk_bF$buf11] clk_bF$buf11_bF$buf0 d_lut_CLKBUF1
ACLKBUF1_37 [clk_bF$buf12] clk_bF$buf12_bF$buf3 d_lut_CLKBUF1
ACLKBUF1_38 [clk_bF$buf12] clk_bF$buf12_bF$buf2 d_lut_CLKBUF1
ACLKBUF1_39 [clk_bF$buf12] clk_bF$buf12_bF$buf1 d_lut_CLKBUF1
ACLKBUF1_40 [clk_bF$buf12] clk_bF$buf12_bF$buf0 d_lut_CLKBUF1
ACLKBUF1_41 [clk_bF$buf13] clk_bF$buf13_bF$buf3 d_lut_CLKBUF1
ACLKBUF1_42 [clk_bF$buf13] clk_bF$buf13_bF$buf2 d_lut_CLKBUF1
ACLKBUF1_43 [clk_bF$buf13] clk_bF$buf13_bF$buf1 d_lut_CLKBUF1
ACLKBUF1_44 [clk_bF$buf13] clk_bF$buf13_bF$buf0 d_lut_CLKBUF1
ACLKBUF1_45 [clk_bF$buf14] clk_bF$buf14_bF$buf3 d_lut_CLKBUF1
ACLKBUF1_46 [clk_bF$buf14] clk_bF$buf14_bF$buf2 d_lut_CLKBUF1
ACLKBUF1_47 [clk_bF$buf14] clk_bF$buf14_bF$buf1 d_lut_CLKBUF1
ACLKBUF1_48 [clk_bF$buf14] clk_bF$buf14_bF$buf0 d_lut_CLKBUF1
ACLKBUF1_49 [clk_bF$buf15] clk_bF$buf15_bF$buf3 d_lut_CLKBUF1
ACLKBUF1_50 [clk_bF$buf15] clk_bF$buf15_bF$buf2 d_lut_CLKBUF1
ACLKBUF1_51 [clk_bF$buf15] clk_bF$buf15_bF$buf1 d_lut_CLKBUF1
ACLKBUF1_52 [clk_bF$buf15] clk_bF$buf15_bF$buf0 d_lut_CLKBUF1
ABUFX4_1 [_629_] _629__bF$buf4 d_lut_BUFX4
ABUFX4_2 [_629_] _629__bF$buf3 d_lut_BUFX4
ABUFX4_3 [_629_] _629__bF$buf2 d_lut_BUFX4
ABUFX4_4 [_629_] _629__bF$buf1 d_lut_BUFX4
ABUFX4_5 [_629_] _629__bF$buf0 d_lut_BUFX4
ACLKBUF1_53 [clk] clk_bF$buf15 d_lut_CLKBUF1
ACLKBUF1_54 [clk] clk_bF$buf14 d_lut_CLKBUF1
ACLKBUF1_55 [clk] clk_bF$buf13 d_lut_CLKBUF1
ACLKBUF1_56 [clk] clk_bF$buf12 d_lut_CLKBUF1
ACLKBUF1_57 [clk] clk_bF$buf11 d_lut_CLKBUF1
ACLKBUF1_58 [clk] clk_bF$buf10 d_lut_CLKBUF1
ACLKBUF1_59 [clk] clk_bF$buf9 d_lut_CLKBUF1
ACLKBUF1_60 [clk] clk_bF$buf8 d_lut_CLKBUF1
ACLKBUF1_61 [clk] clk_bF$buf7 d_lut_CLKBUF1
ACLKBUF1_62 [clk] clk_bF$buf6 d_lut_CLKBUF1
ACLKBUF1_63 [clk] clk_bF$buf5 d_lut_CLKBUF1
ACLKBUF1_64 [clk] clk_bF$buf4 d_lut_CLKBUF1
ACLKBUF1_65 [clk] clk_bF$buf3 d_lut_CLKBUF1
ACLKBUF1_66 [clk] clk_bF$buf2 d_lut_CLKBUF1
ACLKBUF1_67 [clk] clk_bF$buf1 d_lut_CLKBUF1
ACLKBUF1_68 [clk] clk_bF$buf0 d_lut_CLKBUF1
ABUFX4_6 [_623_] _623__bF$buf4 d_lut_BUFX4
ABUFX4_7 [_623_] _623__bF$buf3 d_lut_BUFX4
ABUFX4_8 [_623_] _623__bF$buf2 d_lut_BUFX4
ABUFX4_9 [_623_] _623__bF$buf1 d_lut_BUFX4
ABUFX4_10 [_623_] _623__bF$buf0 d_lut_BUFX4
ABUFX4_11 [column_address_1_] column_address_1_bF$buf7_ d_lut_BUFX4
ABUFX4_12 [column_address_1_] column_address_1_bF$buf6_ d_lut_BUFX4
ABUFX4_13 [column_address_1_] column_address_1_bF$buf5_ d_lut_BUFX4
ABUFX4_14 [column_address_1_] column_address_1_bF$buf4_ d_lut_BUFX4
ABUFX4_15 [column_address_1_] column_address_1_bF$buf3_ d_lut_BUFX4
ABUFX4_16 [column_address_1_] column_address_1_bF$buf2_ d_lut_BUFX4
ABUFX4_17 [column_address_1_] column_address_1_bF$buf1_ d_lut_BUFX4
ABUFX4_18 [column_address_1_] column_address_1_bF$buf0_ d_lut_BUFX4
ABUFX4_19 [_631_] _631__bF$buf4 d_lut_BUFX4
ABUFX4_20 [_631_] _631__bF$buf3 d_lut_BUFX4
ABUFX4_21 [_631_] _631__bF$buf2 d_lut_BUFX4
ABUFX4_22 [_631_] _631__bF$buf1 d_lut_BUFX4
ABUFX4_23 [_631_] _631__bF$buf0 d_lut_BUFX4
ABUFX4_24 [_625_] _625__bF$buf4 d_lut_BUFX4
ABUFX4_25 [_625_] _625__bF$buf3 d_lut_BUFX4
ABUFX4_26 [_625_] _625__bF$buf2 d_lut_BUFX4
ABUFX4_27 [_625_] _625__bF$buf1 d_lut_BUFX4
ABUFX4_28 [_625_] _625__bF$buf0 d_lut_BUFX4
ABUFX4_29 [column_address_0_] column_address_0_bF$buf10_ d_lut_BUFX4
ABUFX4_30 [column_address_0_] column_address_0_bF$buf9_ d_lut_BUFX4
ABUFX4_31 [column_address_0_] column_address_0_bF$buf8_ d_lut_BUFX4
ABUFX4_32 [column_address_0_] column_address_0_bF$buf7_ d_lut_BUFX4
ABUFX4_33 [column_address_0_] column_address_0_bF$buf6_ d_lut_BUFX4
ABUFX4_34 [column_address_0_] column_address_0_bF$buf5_ d_lut_BUFX4
ABUFX4_35 [column_address_0_] column_address_0_bF$buf4_ d_lut_BUFX4
ABUFX4_36 [column_address_0_] column_address_0_bF$buf3_ d_lut_BUFX4
ABUFX4_37 [column_address_0_] column_address_0_bF$buf2_ d_lut_BUFX4
ABUFX4_38 [column_address_0_] column_address_0_bF$buf1_ d_lut_BUFX4
ABUFX4_39 [column_address_0_] column_address_0_bF$buf0_ d_lut_BUFX4
ABUFX4_40 [_633_] _633__bF$buf4 d_lut_BUFX4
ABUFX4_41 [_633_] _633__bF$buf3 d_lut_BUFX4
ABUFX4_42 [_633_] _633__bF$buf2 d_lut_BUFX4
ABUFX4_43 [_633_] _633__bF$buf1 d_lut_BUFX4
ABUFX4_44 [_633_] _633__bF$buf0 d_lut_BUFX4
ABUFX4_45 [_627_] _627__bF$buf4 d_lut_BUFX4
ABUFX4_46 [_627_] _627__bF$buf3 d_lut_BUFX4
ABUFX4_47 [_627_] _627__bF$buf2 d_lut_BUFX4
ABUFX4_48 [_627_] _627__bF$buf1 d_lut_BUFX4
ABUFX4_49 [_627_] _627__bF$buf0 d_lut_BUFX4
ABUFX4_50 [_621_] _621__bF$buf4 d_lut_BUFX4
ABUFX4_51 [_621_] _621__bF$buf3 d_lut_BUFX4
ABUFX4_52 [_621_] _621__bF$buf2 d_lut_BUFX4
ABUFX4_53 [_621_] _621__bF$buf1 d_lut_BUFX4
ABUFX4_54 [_621_] _621__bF$buf0 d_lut_BUFX4
ABUFX4_55 [_609_] _609__bF$buf4 d_lut_BUFX4
ABUFX4_56 [_609_] _609__bF$buf3 d_lut_BUFX4
ABUFX4_57 [_609_] _609__bF$buf2 d_lut_BUFX4
ABUFX4_58 [_609_] _609__bF$buf1 d_lut_BUFX4
ABUFX4_59 [_609_] _609__bF$buf0 d_lut_BUFX4
ANAND3X1_1 [_614_ _694_ _674_] _695_ d_lut_NAND3X1
ANAND2X1_1 [Mem_20__0_ _695_] _696_ d_lut_NAND2X1
AOAI21X1_1 [_609__bF$buf4 _695_ _696_] _48_ d_lut_OAI21X1
ANAND2X1_2 [Mem_20__1_ _695_] _697_ d_lut_NAND2X1
AOAI21X1_2 [_621__bF$buf4 _695_ _697_] _49_ d_lut_OAI21X1
ANAND2X1_3 [Mem_20__2_ _695_] _698_ d_lut_NAND2X1
AOAI21X1_3 [_623__bF$buf4 _695_ _698_] _50_ d_lut_OAI21X1
ANAND2X1_4 [Mem_20__3_ _695_] _699_ d_lut_NAND2X1
AOAI21X1_4 [_625__bF$buf4 _695_ _699_] _51_ d_lut_OAI21X1
ANAND2X1_5 [Mem_20__4_ _695_] _700_ d_lut_NAND2X1
AOAI21X1_5 [_627__bF$buf4 _695_ _700_] _52_ d_lut_OAI21X1
ANAND2X1_6 [Mem_20__5_ _695_] _701_ d_lut_NAND2X1
AOAI21X1_6 [_629__bF$buf4 _695_ _701_] _53_ d_lut_OAI21X1
ANAND2X1_7 [Mem_20__6_ _695_] _702_ d_lut_NAND2X1
AOAI21X1_7 [_631__bF$buf4 _695_ _702_] _54_ d_lut_OAI21X1
ANAND2X1_8 [Mem_20__7_ _695_] _703_ d_lut_NAND2X1
AOAI21X1_8 [_633__bF$buf4 _695_ _703_] _55_ d_lut_OAI21X1
ANAND2X1_9 [column_address_0_bF$buf10_ column_address_1_bF$buf7_] _704_ d_lut_NAND2X1
AINVX2_1 [_704_] _705_ d_lut_INVX2
ANAND3X1_2 [_614_ _705_ _664_] _706_ d_lut_NAND3X1
ANAND2X1_10 [Mem_19__0_ _706_] _707_ d_lut_NAND2X1
AOAI21X1_9 [_609__bF$buf3 _706_ _707_] _56_ d_lut_OAI21X1
ANAND2X1_11 [Mem_19__1_ _706_] _708_ d_lut_NAND2X1
AOAI21X1_10 [_621__bF$buf3 _706_ _708_] _57_ d_lut_OAI21X1
ANAND2X1_12 [Mem_19__2_ _706_] _709_ d_lut_NAND2X1
AOAI21X1_11 [_623__bF$buf3 _706_ _709_] _58_ d_lut_OAI21X1
ANAND2X1_13 [Mem_19__3_ _706_] _710_ d_lut_NAND2X1
AOAI21X1_12 [_625__bF$buf3 _706_ _710_] _59_ d_lut_OAI21X1
ANAND2X1_14 [Mem_19__4_ _706_] _711_ d_lut_NAND2X1
AOAI21X1_13 [_627__bF$buf3 _706_ _711_] _60_ d_lut_OAI21X1
ANAND2X1_15 [Mem_19__5_ _706_] _712_ d_lut_NAND2X1
AOAI21X1_14 [_629__bF$buf3 _706_ _712_] _61_ d_lut_OAI21X1
ANAND2X1_16 [Mem_19__6_ _706_] _713_ d_lut_NAND2X1
AOAI21X1_15 [_631__bF$buf3 _706_ _713_] _62_ d_lut_OAI21X1
ANAND2X1_17 [Mem_19__7_ _706_] _714_ d_lut_NAND2X1
AOAI21X1_16 [_633__bF$buf3 _706_ _714_] _63_ d_lut_OAI21X1
AINVX1_1 [Mem_4__0_] _715_ d_lut_INVX1
ANAND2X1_18 [row_address_0_ _635_] _716_ d_lut_NAND2X1
AINVX8_1 [_716_] _717_ d_lut_INVX8
AINVX2_2 [_614_] _718_ d_lut_INVX2
ANOR2X1_1 [_693_ _718_] _719_ d_lut_NOR2X1
ANAND2X1_19 [_717_ _719_] _720_ d_lut_NAND2X1
AMUX2X1_1 [_715_ _609__bF$buf2 _720_] _64_ d_lut_MUX2X1
AINVX1_2 [Mem_4__1_] _721_ d_lut_INVX1
AMUX2X1_2 [_721_ _621__bF$buf2 _720_] _65_ d_lut_MUX2X1
AINVX1_3 [Mem_4__2_] _722_ d_lut_INVX1
AMUX2X1_3 [_722_ _623__bF$buf2 _720_] _66_ d_lut_MUX2X1
AINVX1_4 [Mem_4__3_] _723_ d_lut_INVX1
AMUX2X1_4 [_723_ _625__bF$buf2 _720_] _67_ d_lut_MUX2X1
AINVX1_5 [Mem_4__4_] _724_ d_lut_INVX1
AMUX2X1_5 [_724_ _627__bF$buf2 _720_] _68_ d_lut_MUX2X1
AINVX1_6 [Mem_4__5_] _725_ d_lut_INVX1
AMUX2X1_6 [_725_ _629__bF$buf2 _720_] _69_ d_lut_MUX2X1
AINVX1_7 [Mem_4__6_] _726_ d_lut_INVX1
AMUX2X1_7 [_726_ _631__bF$buf2 _720_] _70_ d_lut_MUX2X1
AINVX1_8 [Mem_4__7_] _727_ d_lut_INVX1
AMUX2X1_8 [_727_ _633__bF$buf2 _720_] _71_ d_lut_MUX2X1
ANAND3X1_3 [_614_ _694_ _664_] _728_ d_lut_NAND3X1
ANAND2X1_20 [Mem_16__0_ _728_] _729_ d_lut_NAND2X1
AOAI21X1_17 [_609__bF$buf1 _728_ _729_] _72_ d_lut_OAI21X1
ANAND2X1_21 [Mem_16__1_ _728_] _730_ d_lut_NAND2X1
AOAI21X1_18 [_621__bF$buf1 _728_ _730_] _73_ d_lut_OAI21X1
ANAND2X1_22 [Mem_16__2_ _728_] _731_ d_lut_NAND2X1
AOAI21X1_19 [_623__bF$buf1 _728_ _731_] _74_ d_lut_OAI21X1
ANAND2X1_23 [Mem_16__3_ _728_] _732_ d_lut_NAND2X1
AOAI21X1_20 [_625__bF$buf1 _728_ _732_] _75_ d_lut_OAI21X1
ANAND2X1_24 [Mem_16__4_ _728_] _733_ d_lut_NAND2X1
AOAI21X1_21 [_627__bF$buf1 _728_ _733_] _76_ d_lut_OAI21X1
ANAND2X1_25 [Mem_16__5_ _728_] _734_ d_lut_NAND2X1
AOAI21X1_22 [_629__bF$buf1 _728_ _734_] _77_ d_lut_OAI21X1
ANAND2X1_26 [Mem_16__6_ _728_] _735_ d_lut_NAND2X1
AOAI21X1_23 [_631__bF$buf1 _728_ _735_] _78_ d_lut_OAI21X1
ANAND2X1_27 [Mem_16__7_ _728_] _736_ d_lut_NAND2X1
AOAI21X1_24 [_633__bF$buf1 _728_ _736_] _79_ d_lut_OAI21X1
AAND2X2_1 [_639_ _674_] _737_ d_lut_AND2X2
ANOR2X1_2 [Mem_21__0_ _737_] _738_ d_lut_NOR2X1
AAOI21X1_1 [_609__bF$buf0 _737_ _738_] _80_ d_lut_AOI21X1
ANOR2X1_3 [Mem_21__1_ _737_] _739_ d_lut_NOR2X1
AAOI21X1_2 [_621__bF$buf0 _737_ _739_] _81_ d_lut_AOI21X1
ANOR2X1_4 [Mem_21__2_ _737_] _740_ d_lut_NOR2X1
AAOI21X1_3 [_623__bF$buf0 _737_ _740_] _82_ d_lut_AOI21X1
ANOR2X1_5 [Mem_21__3_ _737_] _741_ d_lut_NOR2X1
AAOI21X1_4 [_625__bF$buf0 _737_ _741_] _83_ d_lut_AOI21X1
ANOR2X1_6 [Mem_21__4_ _737_] _742_ d_lut_NOR2X1
AAOI21X1_5 [_627__bF$buf0 _737_ _742_] _84_ d_lut_AOI21X1
ANOR2X1_7 [Mem_21__5_ _737_] _743_ d_lut_NOR2X1
AAOI21X1_6 [_629__bF$buf0 _737_ _743_] _85_ d_lut_AOI21X1
ANOR2X1_8 [Mem_21__6_ _737_] _744_ d_lut_NOR2X1
AAOI21X1_7 [_631__bF$buf0 _737_ _744_] _86_ d_lut_AOI21X1
ANOR2X1_9 [Mem_21__7_ _737_] _745_ d_lut_NOR2X1
AAOI21X1_8 [_633__bF$buf0 _737_ _745_] _87_ d_lut_AOI21X1
AINVX1_9 [Mem_8__0_] _746_ d_lut_INVX1
ANAND2X1_28 [_694_ _618_] _747_ d_lut_NAND2X1
AMUX2X1_9 [_746_ _609__bF$buf4 _747_] _88_ d_lut_MUX2X1
AINVX1_10 [Mem_8__1_] _748_ d_lut_INVX1
AMUX2X1_10 [_748_ _621__bF$buf4 _747_] _89_ d_lut_MUX2X1
AINVX1_11 [Mem_8__2_] _749_ d_lut_INVX1
AMUX2X1_11 [_749_ _623__bF$buf4 _747_] _90_ d_lut_MUX2X1
AINVX1_12 [Mem_8__3_] _750_ d_lut_INVX1
AMUX2X1_12 [_750_ _625__bF$buf4 _747_] _91_ d_lut_MUX2X1
AINVX1_13 [Mem_8__4_] _751_ d_lut_INVX1
AMUX2X1_13 [_751_ _627__bF$buf4 _747_] _92_ d_lut_MUX2X1
AINVX1_14 [Mem_8__5_] _752_ d_lut_INVX1
AMUX2X1_14 [_752_ _629__bF$buf4 _747_] _93_ d_lut_MUX2X1
AINVX1_15 [Mem_8__6_] _753_ d_lut_INVX1
AMUX2X1_15 [_753_ _631__bF$buf4 _747_] _94_ d_lut_MUX2X1
AINVX1_16 [Mem_8__7_] _754_ d_lut_INVX1
AMUX2X1_16 [_754_ _633__bF$buf4 _747_] _95_ d_lut_MUX2X1
ANOR2X1_10 [_634_ _616_] _755_ d_lut_NOR2X1
ANOR2X1_11 [_704_ _718_] _756_ d_lut_NOR2X1
ANAND2X1_29 [_755_ _756_] _757_ d_lut_NAND2X1
ANAND2X1_30 [Mem_15__0_ _757_] _758_ d_lut_NAND2X1
AOAI21X1_25 [_609__bF$buf3 _757_ _758_] _99_ d_lut_OAI21X1
ANAND2X1_31 [Mem_15__1_ _757_] _759_ d_lut_NAND2X1
AOAI21X1_26 [_621__bF$buf3 _757_ _759_] _100_ d_lut_OAI21X1
ANAND2X1_32 [Mem_15__2_ _757_] _760_ d_lut_NAND2X1
AOAI21X1_27 [_623__bF$buf3 _757_ _760_] _101_ d_lut_OAI21X1
ANAND2X1_33 [Mem_15__3_ _757_] _761_ d_lut_NAND2X1
AOAI21X1_28 [_625__bF$buf3 _757_ _761_] _102_ d_lut_OAI21X1
ANAND2X1_34 [Mem_15__4_ _757_] _762_ d_lut_NAND2X1
AOAI21X1_29 [_627__bF$buf3 _757_ _762_] _103_ d_lut_OAI21X1
ANAND2X1_35 [Mem_15__5_ _757_] _763_ d_lut_NAND2X1
AOAI21X1_30 [_629__bF$buf3 _757_ _763_] _104_ d_lut_OAI21X1
ANAND2X1_36 [Mem_15__6_ _757_] _764_ d_lut_NAND2X1
AOAI21X1_31 [_631__bF$buf3 _757_ _764_] _105_ d_lut_OAI21X1
ANAND2X1_37 [Mem_15__7_ _757_] _765_ d_lut_NAND2X1
AOAI21X1_32 [_633__bF$buf3 _757_ _765_] _106_ d_lut_OAI21X1
ANAND3X1_4 [_705_ _614_ _637_] _766_ d_lut_NAND3X1
ANAND2X1_38 [Mem_3__0_ _766_] _767_ d_lut_NAND2X1
AOAI21X1_33 [_609__bF$buf2 _766_ _767_] _107_ d_lut_OAI21X1
ANAND2X1_39 [Mem_3__1_ _766_] _768_ d_lut_NAND2X1
AOAI21X1_34 [_621__bF$buf2 _766_ _768_] _108_ d_lut_OAI21X1
ANAND2X1_40 [Mem_3__2_ _766_] _769_ d_lut_NAND2X1
AOAI21X1_35 [_623__bF$buf2 _766_ _769_] _109_ d_lut_OAI21X1
ANAND2X1_41 [Mem_3__3_ _766_] _770_ d_lut_NAND2X1
AOAI21X1_36 [_625__bF$buf2 _766_ _770_] _110_ d_lut_OAI21X1
ANAND2X1_42 [Mem_3__4_ _766_] _771_ d_lut_NAND2X1
AOAI21X1_37 [_627__bF$buf2 _766_ _771_] _111_ d_lut_OAI21X1
ANAND2X1_43 [Mem_3__5_ _766_] _772_ d_lut_NAND2X1
AOAI21X1_38 [_629__bF$buf2 _766_ _772_] _112_ d_lut_OAI21X1
ANAND2X1_44 [Mem_3__6_ _766_] _773_ d_lut_NAND2X1
AOAI21X1_39 [_631__bF$buf2 _766_ _773_] _113_ d_lut_OAI21X1
ANAND2X1_45 [Mem_3__7_ _766_] _774_ d_lut_NAND2X1
AOAI21X1_40 [_633__bF$buf2 _766_ _774_] _114_ d_lut_OAI21X1
ANAND3X1_5 [_614_ _661_ _755_] _775_ d_lut_NAND3X1
ANAND2X1_46 [Mem_14__0_ _775_] _776_ d_lut_NAND2X1
AOAI21X1_41 [_609__bF$buf1 _775_ _776_] _115_ d_lut_OAI21X1
ANAND2X1_47 [Mem_14__1_ _775_] _777_ d_lut_NAND2X1
AOAI21X1_42 [_621__bF$buf1 _775_ _777_] _116_ d_lut_OAI21X1
ANAND2X1_48 [Mem_14__2_ _775_] _778_ d_lut_NAND2X1
AOAI21X1_43 [_623__bF$buf1 _775_ _778_] _117_ d_lut_OAI21X1
ANAND2X1_49 [Mem_14__3_ _775_] _779_ d_lut_NAND2X1
AOAI21X1_44 [_625__bF$buf1 _775_ _779_] _118_ d_lut_OAI21X1
ANAND2X1_50 [Mem_14__4_ _775_] _780_ d_lut_NAND2X1
AOAI21X1_45 [_627__bF$buf1 _775_ _780_] _119_ d_lut_OAI21X1
ANAND2X1_51 [Mem_14__5_ _775_] _781_ d_lut_NAND2X1
AOAI21X1_46 [_629__bF$buf1 _775_ _781_] _120_ d_lut_OAI21X1
ANAND2X1_52 [Mem_14__6_ _775_] _782_ d_lut_NAND2X1
AOAI21X1_47 [_631__bF$buf1 _775_ _782_] _121_ d_lut_OAI21X1
ANAND2X1_53 [Mem_14__7_ _775_] _783_ d_lut_NAND2X1
AOAI21X1_48 [_633__bF$buf1 _775_ _783_] _122_ d_lut_OAI21X1
AAND2X2_2 [_639_ _755_] _784_ d_lut_AND2X2
ANOR2X1_12 [Mem_13__0_ _784_] _785_ d_lut_NOR2X1
AAOI21X1_9 [_609__bF$buf0 _784_ _785_] _123_ d_lut_AOI21X1
ANOR2X1_13 [Mem_13__1_ _784_] _786_ d_lut_NOR2X1
AAOI21X1_10 [_621__bF$buf0 _784_ _786_] _124_ d_lut_AOI21X1
ANOR2X1_14 [Mem_13__2_ _784_] _787_ d_lut_NOR2X1
AAOI21X1_11 [_623__bF$buf0 _784_ _787_] _125_ d_lut_AOI21X1
ANOR2X1_15 [Mem_13__3_ _784_] _788_ d_lut_NOR2X1
AAOI21X1_12 [_625__bF$buf0 _784_ _788_] _126_ d_lut_AOI21X1
ANOR2X1_16 [Mem_13__4_ _784_] _789_ d_lut_NOR2X1
AAOI21X1_13 [_627__bF$buf0 _784_ _789_] _127_ d_lut_AOI21X1
ANOR2X1_17 [Mem_13__5_ _784_] _790_ d_lut_NOR2X1
AAOI21X1_14 [_629__bF$buf0 _784_ _790_] _128_ d_lut_AOI21X1
ANOR2X1_18 [Mem_13__6_ _784_] _791_ d_lut_NOR2X1
AAOI21X1_15 [_631__bF$buf0 _784_ _791_] _129_ d_lut_AOI21X1
ANOR2X1_19 [Mem_13__7_ _784_] _792_ d_lut_NOR2X1
AAOI21X1_16 [_633__bF$buf0 _784_ _792_] _130_ d_lut_AOI21X1
ANAND2X1_54 [_755_ _719_] _793_ d_lut_NAND2X1
ANAND2X1_55 [Mem_12__0_ _793_] _794_ d_lut_NAND2X1
AOAI21X1_49 [_609__bF$buf4 _793_ _794_] _131_ d_lut_OAI21X1
ANAND2X1_56 [Mem_12__1_ _793_] _795_ d_lut_NAND2X1
AOAI21X1_50 [_621__bF$buf4 _793_ _795_] _132_ d_lut_OAI21X1
ANAND2X1_57 [Mem_12__2_ _793_] _796_ d_lut_NAND2X1
AOAI21X1_51 [_623__bF$buf4 _793_ _796_] _133_ d_lut_OAI21X1
ANAND2X1_58 [Mem_12__3_ _793_] _797_ d_lut_NAND2X1
AOAI21X1_52 [_625__bF$buf4 _793_ _797_] _134_ d_lut_OAI21X1
ANAND2X1_59 [Mem_12__4_ _793_] _798_ d_lut_NAND2X1
AOAI21X1_53 [_627__bF$buf4 _793_ _798_] _135_ d_lut_OAI21X1
ANAND2X1_60 [Mem_12__5_ _793_] _799_ d_lut_NAND2X1
AOAI21X1_54 [_629__bF$buf4 _793_ _799_] _136_ d_lut_OAI21X1
ANAND2X1_61 [Mem_12__6_ _793_] _800_ d_lut_NAND2X1
AOAI21X1_55 [_631__bF$buf4 _793_ _800_] _137_ d_lut_OAI21X1
ANAND2X1_62 [Mem_12__7_ _793_] _801_ d_lut_NAND2X1
AOAI21X1_56 [_633__bF$buf4 _793_ _801_] _138_ d_lut_OAI21X1
ANAND2X1_63 [_705_ _618_] _802_ d_lut_NAND2X1
ANAND2X1_64 [Mem_11__0_ _802_] _803_ d_lut_NAND2X1
AOAI21X1_57 [_609__bF$buf3 _802_ _803_] _139_ d_lut_OAI21X1
ANAND2X1_65 [Mem_11__1_ _802_] _804_ d_lut_NAND2X1
AOAI21X1_58 [_621__bF$buf3 _802_ _804_] _140_ d_lut_OAI21X1
ANAND2X1_66 [Mem_11__2_ _802_] _805_ d_lut_NAND2X1
AOAI21X1_59 [_623__bF$buf3 _802_ _805_] _141_ d_lut_OAI21X1
ANAND2X1_67 [Mem_11__3_ _802_] _806_ d_lut_NAND2X1
AOAI21X1_60 [_625__bF$buf3 _802_ _806_] _142_ d_lut_OAI21X1
ANAND2X1_68 [Mem_11__4_ _802_] _807_ d_lut_NAND2X1
AOAI21X1_61 [_627__bF$buf3 _802_ _807_] _143_ d_lut_OAI21X1
ANAND2X1_69 [Mem_11__5_ _802_] _808_ d_lut_NAND2X1
AOAI21X1_62 [_629__bF$buf3 _802_ _808_] _144_ d_lut_OAI21X1
ANAND2X1_70 [Mem_11__6_ _802_] _809_ d_lut_NAND2X1
AOAI21X1_63 [_631__bF$buf3 _802_ _809_] _145_ d_lut_OAI21X1
ANAND2X1_71 [Mem_11__7_ _802_] _810_ d_lut_NAND2X1
AOAI21X1_64 [_633__bF$buf3 _802_ _810_] _146_ d_lut_OAI21X1
AINVX8_2 [_650_] _811_ d_lut_INVX8
ANAND3X1_6 [_614_ _705_ _811_] _812_ d_lut_NAND3X1
ANAND2X1_72 [Mem_31__0_ _812_] _813_ d_lut_NAND2X1
AOAI21X1_65 [_609__bF$buf2 _812_ _813_] _147_ d_lut_OAI21X1
ANAND2X1_73 [Mem_31__1_ _812_] _814_ d_lut_NAND2X1
AOAI21X1_66 [_621__bF$buf2 _812_ _814_] _148_ d_lut_OAI21X1
ANAND2X1_74 [Mem_31__2_ _812_] _815_ d_lut_NAND2X1
AOAI21X1_67 [_623__bF$buf2 _812_ _815_] _149_ d_lut_OAI21X1
ANAND2X1_75 [Mem_31__3_ _812_] _816_ d_lut_NAND2X1
AOAI21X1_68 [_625__bF$buf2 _812_ _816_] _150_ d_lut_OAI21X1
ANAND2X1_76 [Mem_31__4_ _812_] _817_ d_lut_NAND2X1
AOAI21X1_69 [_627__bF$buf2 _812_ _817_] _151_ d_lut_OAI21X1
ANAND2X1_77 [Mem_31__5_ _812_] _818_ d_lut_NAND2X1
AOAI21X1_70 [_629__bF$buf2 _812_ _818_] _152_ d_lut_OAI21X1
ANAND2X1_78 [Mem_31__6_ _812_] _819_ d_lut_NAND2X1
AOAI21X1_71 [_631__bF$buf2 _812_ _819_] _153_ d_lut_OAI21X1
ANAND2X1_79 [Mem_31__7_ _812_] _820_ d_lut_NAND2X1
AOAI21X1_72 [_633__bF$buf2 _812_ _820_] _154_ d_lut_OAI21X1
AINVX1_17 [Mem_7__0_] _821_ d_lut_INVX1
ANAND2X1_80 [_717_ _756_] _822_ d_lut_NAND2X1
AMUX2X1_17 [_821_ _609__bF$buf1 _822_] _155_ d_lut_MUX2X1
AINVX1_18 [Mem_7__1_] _823_ d_lut_INVX1
AMUX2X1_18 [_823_ _621__bF$buf1 _822_] _156_ d_lut_MUX2X1
AINVX1_19 [Mem_7__2_] _824_ d_lut_INVX1
AMUX2X1_19 [_824_ _623__bF$buf1 _822_] _157_ d_lut_MUX2X1
AINVX1_20 [Mem_7__3_] _825_ d_lut_INVX1
AMUX2X1_20 [_825_ _625__bF$buf1 _822_] _158_ d_lut_MUX2X1
AINVX1_21 [Mem_7__4_] _826_ d_lut_INVX1
AMUX2X1_21 [_826_ _627__bF$buf1 _822_] _159_ d_lut_MUX2X1
AINVX1_22 [Mem_7__5_] _827_ d_lut_INVX1
AMUX2X1_22 [_827_ _629__bF$buf1 _822_] _160_ d_lut_MUX2X1
AINVX1_23 [Mem_7__6_] _828_ d_lut_INVX1
AMUX2X1_23 [_828_ _631__bF$buf1 _822_] _161_ d_lut_MUX2X1
AINVX1_24 [Mem_7__7_] _829_ d_lut_INVX1
AMUX2X1_24 [_829_ _633__bF$buf1 _822_] _162_ d_lut_MUX2X1
AINVX1_25 [Mem_10__0_] _830_ d_lut_INVX1
ANAND2X1_81 [_661_ _618_] _831_ d_lut_NAND2X1
AMUX2X1_25 [_830_ _609__bF$buf0 _831_] _163_ d_lut_MUX2X1
AINVX1_26 [Mem_10__1_] _832_ d_lut_INVX1
AMUX2X1_26 [_832_ _621__bF$buf0 _831_] _164_ d_lut_MUX2X1
AINVX1_27 [Mem_10__2_] _833_ d_lut_INVX1
AMUX2X1_27 [_833_ _623__bF$buf0 _831_] _165_ d_lut_MUX2X1
AINVX1_28 [Mem_10__3_] _834_ d_lut_INVX1
AMUX2X1_28 [_834_ _625__bF$buf0 _831_] _166_ d_lut_MUX2X1
AINVX1_29 [Mem_10__4_] _835_ d_lut_INVX1
AMUX2X1_29 [_835_ _627__bF$buf0 _831_] _167_ d_lut_MUX2X1
AINVX1_30 [Mem_10__5_] _836_ d_lut_INVX1
AMUX2X1_30 [_836_ _629__bF$buf0 _831_] _168_ d_lut_MUX2X1
AINVX1_31 [Mem_10__6_] _837_ d_lut_INVX1
AMUX2X1_31 [_837_ _631__bF$buf0 _831_] _169_ d_lut_MUX2X1
AINVX1_32 [Mem_10__7_] _838_ d_lut_INVX1
AMUX2X1_32 [_838_ _633__bF$buf0 _831_] _170_ d_lut_MUX2X1
ANOR2X1_20 [_636_ _718_] _839_ d_lut_NOR2X1
ANAND2X1_82 [_694_ _839_] _840_ d_lut_NAND2X1
ANAND2X1_83 [Mem_0__0_ _840_] _841_ d_lut_NAND2X1
AOAI21X1_73 [_609__bF$buf4 _840_ _841_] _171_ d_lut_OAI21X1
ANAND2X1_84 [Mem_0__1_ _840_] _842_ d_lut_NAND2X1
AOAI21X1_74 [_621__bF$buf4 _840_ _842_] _172_ d_lut_OAI21X1
ANAND2X1_85 [Mem_0__2_ _840_] _843_ d_lut_NAND2X1
AOAI21X1_75 [_623__bF$buf4 _840_ _843_] _173_ d_lut_OAI21X1
ANAND2X1_86 [Mem_0__3_ _840_] _844_ d_lut_NAND2X1
AOAI21X1_76 [_625__bF$buf4 _840_ _844_] _174_ d_lut_OAI21X1
ANAND2X1_87 [Mem_0__4_ _840_] _845_ d_lut_NAND2X1
AOAI21X1_77 [_627__bF$buf4 _840_ _845_] _175_ d_lut_OAI21X1
ANAND2X1_88 [Mem_0__5_ _840_] _846_ d_lut_NAND2X1
AOAI21X1_78 [_629__bF$buf4 _840_ _846_] _176_ d_lut_OAI21X1
ANAND2X1_89 [Mem_0__6_ _840_] _847_ d_lut_NAND2X1
AOAI21X1_79 [_631__bF$buf4 _840_ _847_] _177_ d_lut_OAI21X1
ANAND2X1_90 [Mem_0__7_ _840_] _848_ d_lut_NAND2X1
AOAI21X1_80 [_633__bF$buf4 _840_ _848_] _178_ d_lut_OAI21X1
ANAND2X1_91 [_661_ _614_] _849_ d_lut_NAND2X1
AOR2X2_1 [_849_ _716_] _850_ d_lut_OR2X2
AOAI21X1_81 [_849_ _716_ Mem_6__0_] _851_ d_lut_OAI21X1
AOAI21X1_82 [_850_ _609__bF$buf3 _851_] _179_ d_lut_OAI21X1
AOAI21X1_83 [_849_ _716_ Mem_6__1_] _852_ d_lut_OAI21X1
AOAI21X1_84 [_850_ _621__bF$buf3 _852_] _180_ d_lut_OAI21X1
AOAI21X1_85 [_849_ _716_ Mem_6__2_] _853_ d_lut_OAI21X1
AOAI21X1_86 [_850_ _623__bF$buf3 _853_] _181_ d_lut_OAI21X1
AOAI21X1_87 [_849_ _716_ Mem_6__3_] _854_ d_lut_OAI21X1
AOAI21X1_88 [_850_ _625__bF$buf3 _854_] _182_ d_lut_OAI21X1
AOAI21X1_89 [_849_ _716_ Mem_6__4_] _855_ d_lut_OAI21X1
AOAI21X1_90 [_850_ _627__bF$buf3 _855_] _183_ d_lut_OAI21X1
AOAI21X1_91 [_849_ _716_ Mem_6__5_] _856_ d_lut_OAI21X1
AOAI21X1_92 [_850_ _629__bF$buf3 _856_] _184_ d_lut_OAI21X1
AOAI21X1_93 [_849_ _716_ Mem_6__6_] _857_ d_lut_OAI21X1
AOAI21X1_94 [_850_ _631__bF$buf3 _857_] _185_ d_lut_OAI21X1
AOAI21X1_95 [_849_ _716_ Mem_6__7_] _858_ d_lut_OAI21X1
AOAI21X1_96 [_850_ _633__bF$buf3 _858_] _186_ d_lut_OAI21X1
ANOR2X1_21 [_716_ _638_] _859_ d_lut_NOR2X1
ANOR2X1_22 [Mem_5__0_ _859_] _860_ d_lut_NOR2X1
AAOI21X1_17 [_609__bF$buf2 _859_ _860_] _187_ d_lut_AOI21X1
ANOR2X1_23 [Mem_5__1_ _859_] _861_ d_lut_NOR2X1
AAOI21X1_18 [_621__bF$buf2 _859_ _861_] _188_ d_lut_AOI21X1
ANOR2X1_24 [Mem_5__2_ _859_] _862_ d_lut_NOR2X1
AAOI21X1_19 [_623__bF$buf2 _859_ _862_] _189_ d_lut_AOI21X1
ANOR2X1_25 [Mem_5__3_ _859_] _863_ d_lut_NOR2X1
AAOI21X1_20 [_625__bF$buf2 _859_ _863_] _190_ d_lut_AOI21X1
ANOR2X1_26 [Mem_5__4_ _859_] _269_ d_lut_NOR2X1
AAOI21X1_21 [_627__bF$buf2 _859_ _269_] _191_ d_lut_AOI21X1
ANOR2X1_27 [Mem_5__5_ _859_] _270_ d_lut_NOR2X1
AAOI21X1_22 [_629__bF$buf2 _859_ _270_] _192_ d_lut_AOI21X1
ANOR2X1_28 [Mem_5__6_ _859_] _271_ d_lut_NOR2X1
AAOI21X1_23 [_631__bF$buf2 _859_ _271_] _193_ d_lut_AOI21X1
ANOR2X1_29 [Mem_5__7_ _859_] _272_ d_lut_NOR2X1
AAOI21X1_24 [_633__bF$buf2 _859_ _272_] _194_ d_lut_AOI21X1
ANAND3X1_7 [_614_ _705_ _674_] _273_ d_lut_NAND3X1
ANAND2X1_92 [Mem_23__0_ _273_] _274_ d_lut_NAND2X1
AOAI21X1_97 [_609__bF$buf1 _273_ _274_] _197_ d_lut_OAI21X1
ANAND2X1_93 [Mem_23__1_ _273_] _275_ d_lut_NAND2X1
AOAI21X1_98 [_621__bF$buf1 _273_ _275_] _198_ d_lut_OAI21X1
ANAND2X1_94 [Mem_23__2_ _273_] _276_ d_lut_NAND2X1
AOAI21X1_99 [_623__bF$buf1 _273_ _276_] _199_ d_lut_OAI21X1
ANAND2X1_95 [Mem_23__3_ _273_] _277_ d_lut_NAND2X1
AOAI21X1_100 [_625__bF$buf1 _273_ _277_] _200_ d_lut_OAI21X1
ANAND2X1_96 [Mem_23__4_ _273_] _278_ d_lut_NAND2X1
AOAI21X1_101 [_627__bF$buf1 _273_ _278_] _201_ d_lut_OAI21X1
ANAND2X1_97 [Mem_23__5_ _273_] _279_ d_lut_NAND2X1
AOAI21X1_102 [_629__bF$buf1 _273_ _279_] _202_ d_lut_OAI21X1
ANAND2X1_98 [Mem_23__6_ _273_] _280_ d_lut_NAND2X1
AOAI21X1_103 [_631__bF$buf1 _273_ _280_] _203_ d_lut_OAI21X1
ANAND2X1_99 [Mem_23__7_ _273_] _281_ d_lut_NAND2X1
AOAI21X1_104 [_633__bF$buf1 _273_ _281_] _204_ d_lut_OAI21X1
AINVX1_33 [Mem_24__0_] _282_ d_lut_INVX1
ANOR2X1_30 [row_address_0_ _649_] _283_ d_lut_NOR2X1
ANAND2X1_100 [_283_ _719_] _284_ d_lut_NAND2X1
AMUX2X1_33 [_282_ _609__bF$buf0 _284_] _205_ d_lut_MUX2X1
AINVX1_34 [Mem_24__1_] _285_ d_lut_INVX1
AMUX2X1_34 [_285_ _621__bF$buf0 _284_] _206_ d_lut_MUX2X1
AINVX1_35 [Mem_24__2_] _286_ d_lut_INVX1
AMUX2X1_35 [_286_ _623__bF$buf0 _284_] _207_ d_lut_MUX2X1
AINVX1_36 [Mem_24__3_] _287_ d_lut_INVX1
AMUX2X1_36 [_287_ _625__bF$buf0 _284_] _208_ d_lut_MUX2X1
AINVX1_37 [Mem_24__4_] _288_ d_lut_INVX1
AMUX2X1_37 [_288_ _627__bF$buf0 _284_] _209_ d_lut_MUX2X1
AINVX1_38 [Mem_24__5_] _289_ d_lut_INVX1
AMUX2X1_38 [_289_ _629__bF$buf0 _284_] _210_ d_lut_MUX2X1
AINVX1_39 [Mem_24__6_] _290_ d_lut_INVX1
AMUX2X1_39 [_290_ _631__bF$buf0 _284_] _211_ d_lut_MUX2X1
AINVX1_40 [Mem_24__7_] _291_ d_lut_INVX1
AMUX2X1_40 [_291_ _633__bF$buf0 _284_] _212_ d_lut_MUX2X1
AINVX1_41 [Mem_25__0_] _292_ d_lut_INVX1
ANAND2X1_101 [_283_ _639_] _293_ d_lut_NAND2X1
AMUX2X1_41 [_292_ _609__bF$buf4 _293_] _213_ d_lut_MUX2X1
AINVX1_42 [Mem_25__1_] _294_ d_lut_INVX1
AMUX2X1_42 [_294_ _621__bF$buf4 _293_] _214_ d_lut_MUX2X1
AINVX1_43 [Mem_25__2_] _295_ d_lut_INVX1
AMUX2X1_43 [_295_ _623__bF$buf4 _293_] _215_ d_lut_MUX2X1
AINVX1_44 [Mem_25__3_] _296_ d_lut_INVX1
AMUX2X1_44 [_296_ _625__bF$buf4 _293_] _216_ d_lut_MUX2X1
AINVX1_45 [Mem_25__4_] _297_ d_lut_INVX1
AMUX2X1_45 [_297_ _627__bF$buf4 _293_] _217_ d_lut_MUX2X1
AINVX1_46 [Mem_25__5_] _298_ d_lut_INVX1
AMUX2X1_46 [_298_ _629__bF$buf4 _293_] _218_ d_lut_MUX2X1
AINVX1_47 [Mem_25__6_] _299_ d_lut_INVX1
AMUX2X1_47 [_299_ _631__bF$buf4 _293_] _219_ d_lut_MUX2X1
AINVX1_48 [Mem_25__7_] _300_ d_lut_INVX1
AMUX2X1_48 [_300_ _633__bF$buf4 _293_] _220_ d_lut_MUX2X1
AINVX1_49 [_283_] _301_ d_lut_INVX1
ANOR2X1_31 [_301_ _849_] _302_ d_lut_NOR2X1
ANOR2X1_32 [Mem_26__0_ _302_] _303_ d_lut_NOR2X1
AAOI21X1_25 [_609__bF$buf3 _302_ _303_] _221_ d_lut_AOI21X1
ANOR2X1_33 [Mem_26__1_ _302_] _304_ d_lut_NOR2X1
AAOI21X1_26 [_621__bF$buf3 _302_ _304_] _222_ d_lut_AOI21X1
ANOR2X1_34 [Mem_26__2_ _302_] _305_ d_lut_NOR2X1
AAOI21X1_27 [_623__bF$buf3 _302_ _305_] _223_ d_lut_AOI21X1
ANOR2X1_35 [Mem_26__3_ _302_] _306_ d_lut_NOR2X1
AAOI21X1_28 [_625__bF$buf3 _302_ _306_] _224_ d_lut_AOI21X1
ANOR2X1_36 [Mem_26__4_ _302_] _307_ d_lut_NOR2X1
AAOI21X1_29 [_627__bF$buf3 _302_ _307_] _225_ d_lut_AOI21X1
ANOR2X1_37 [Mem_26__5_ _302_] _308_ d_lut_NOR2X1
AAOI21X1_30 [_629__bF$buf3 _302_ _308_] _226_ d_lut_AOI21X1
ANOR2X1_38 [Mem_26__6_ _302_] _309_ d_lut_NOR2X1
AAOI21X1_31 [_631__bF$buf3 _302_ _309_] _227_ d_lut_AOI21X1
ANOR2X1_39 [Mem_26__7_ _302_] _310_ d_lut_NOR2X1
AAOI21X1_32 [_633__bF$buf3 _302_ _310_] _228_ d_lut_AOI21X1
AINVX1_50 [Mem_27__0_] _311_ d_lut_INVX1
ANAND2X1_102 [_283_ _756_] _312_ d_lut_NAND2X1
AMUX2X1_49 [_311_ _609__bF$buf2 _312_] _229_ d_lut_MUX2X1
AINVX1_51 [Mem_27__1_] _313_ d_lut_INVX1
AMUX2X1_50 [_313_ _621__bF$buf2 _312_] _230_ d_lut_MUX2X1
AINVX1_52 [Mem_27__2_] _314_ d_lut_INVX1
AMUX2X1_51 [_314_ _623__bF$buf2 _312_] _231_ d_lut_MUX2X1
AINVX1_53 [Mem_27__3_] _315_ d_lut_INVX1
AMUX2X1_52 [_315_ _625__bF$buf2 _312_] _232_ d_lut_MUX2X1
AINVX1_54 [Mem_27__4_] _316_ d_lut_INVX1
AMUX2X1_53 [_316_ _627__bF$buf2 _312_] _233_ d_lut_MUX2X1
AINVX1_55 [Mem_27__5_] _317_ d_lut_INVX1
AMUX2X1_54 [_317_ _629__bF$buf2 _312_] _234_ d_lut_MUX2X1
AINVX1_56 [Mem_27__6_] _318_ d_lut_INVX1
AMUX2X1_55 [_318_ _631__bF$buf2 _312_] _235_ d_lut_MUX2X1
AINVX1_57 [Mem_27__7_] _319_ d_lut_INVX1
AMUX2X1_56 [_319_ _633__bF$buf2 _312_] _236_ d_lut_MUX2X1
ANAND3X1_8 [_614_ _694_ _811_] _320_ d_lut_NAND3X1
ANAND2X1_103 [Mem_28__0_ _320_] _321_ d_lut_NAND2X1
AOAI21X1_105 [_609__bF$buf1 _320_ _321_] _237_ d_lut_OAI21X1
ANAND2X1_104 [Mem_28__1_ _320_] _322_ d_lut_NAND2X1
AOAI21X1_106 [_621__bF$buf1 _320_ _322_] _238_ d_lut_OAI21X1
ANAND2X1_105 [Mem_28__2_ _320_] _323_ d_lut_NAND2X1
AOAI21X1_107 [_623__bF$buf1 _320_ _323_] _239_ d_lut_OAI21X1
ANAND2X1_106 [Mem_28__3_ _320_] _324_ d_lut_NAND2X1
AOAI21X1_108 [_625__bF$buf1 _320_ _324_] _240_ d_lut_OAI21X1
ANAND2X1_107 [Mem_28__4_ _320_] _325_ d_lut_NAND2X1
AOAI21X1_109 [_627__bF$buf1 _320_ _325_] _241_ d_lut_OAI21X1
ANAND2X1_108 [Mem_28__5_ _320_] _326_ d_lut_NAND2X1
AOAI21X1_110 [_629__bF$buf1 _320_ _326_] _242_ d_lut_OAI21X1
ANAND2X1_109 [Mem_28__6_ _320_] _327_ d_lut_NAND2X1
AOAI21X1_111 [_631__bF$buf1 _320_ _327_] _243_ d_lut_OAI21X1
ANAND2X1_110 [Mem_28__7_ _320_] _328_ d_lut_NAND2X1
AOAI21X1_112 [_633__bF$buf1 _320_ _328_] _244_ d_lut_OAI21X1
ANAND2X1_111 [_661_ _839_] _329_ d_lut_NAND2X1
ANAND2X1_112 [Mem_2__0_ _329_] _330_ d_lut_NAND2X1
AOAI21X1_113 [_609__bF$buf0 _329_ _330_] _245_ d_lut_OAI21X1
ANAND2X1_113 [Mem_2__1_ _329_] _331_ d_lut_NAND2X1
AOAI21X1_114 [_621__bF$buf0 _329_ _331_] _246_ d_lut_OAI21X1
ANAND2X1_114 [Mem_2__2_ _329_] _332_ d_lut_NAND2X1
AOAI21X1_115 [_623__bF$buf0 _329_ _332_] _247_ d_lut_OAI21X1