*SPEF "IEEE 1481.1999"
*DESIGN "ram32_sdram_2split"
*DATE "10:29:32 Saturday November 30, 2024"
*VENDOR "unknown"
*PROGRAM "qrouter"
*VERSION "unknown"
*DESIGN_FLOW "qflow"
*DIVIDER /
*DELIMITER :
*BUS_DELIMITER <>
*T_UNIT 1 PS
*C_UNIT 1 FF
*R_UNIT 1 OHM
*L_UNIT 1 HENRY

*NAME_MAP
*1 clk
*2 CLKBUF1_60
*3 CLKBUF1_62
*4 CLKBUF1_66
*5 CLKBUF1_58
*6 CLKBUF1_61
*7 CLKBUF1_68
*8 CLKBUF1_53
*9 CLKBUF1_55
*10 CLKBUF1_64
*11 CLKBUF1_54
*12 CLKBUF1_56
*13 CLKBUF1_57
*14 CLKBUF1_59
*15 CLKBUF1_65
*16 CLKBUF1_67
*17 CLKBUF1_63
*18 clk_bF_buf2
*19 CLKBUF1_66
*20 CLKBUF1_39
*21 DFFPOSX1_255
*22 DFFPOSX1_31
*23 DFFPOSX1_143
*24 CLKBUF1_38
*25 CLKBUF1_19
*26 CLKBUF1_49
*27 DFFPOSX1_111
*28 CLKBUF1_37
*29 DFFPOSX1_63
*30 CLKBUF1_13
*31 CLKBUF1_2
*32 DFFPOSX1_159
*33 DFFPOSX1_112
*34 CLKBUF1_45
*35 DFFPOSX1_144
*36 clk_bF_buf1
*37 CLKBUF1_67
*38 DFFPOSX1_206
*39 DFFPOSX1_254
*40 CLKBUF1_22
*41 CLKBUF1_51
*42 CLKBUF1_23
*43 DFFPOSX1_96
*44 CLKBUF1_11
*45 DFFPOSX1_94
*46 DFFPOSX1_62
*47 DFFPOSX1_30
*48 DFFPOSX1_32
*49 DFFPOSX1_64
*50 CLKBUF1_33
*51 CLKBUF1_44
*52 DFFPOSX1_46
*53 DFFPOSX1_78
*54 clk_bF_buf0
*55 CLKBUF1_68
*56 DFFPOSX1_47
*57 CLKBUF1_26
*58 DFFPOSX1_15
*59 DFFPOSX1_127
*60 CLKBUF1_18
*61 DFFPOSX1_158
*62 DFFPOSX1_190
*63 DFFPOSX1_110
*64 CLKBUF1_6
*65 CLKBUF1_32
*66 DFFPOSX1_126
*67 CLKBUF1_31
*68 DFFPOSX1_142
*69 DFFPOSX1_175
*70 CLKBUF1_5
*71 CLKBUF1_42
*72 _695_
*73 NAND3X1_1
*74 NAND2X1_4
*75 OAI21X1_4
*76 NAND2X1_8
*77 OAI21X1_8
*78 NAND2X1_6
*79 OAI21X1_6
*80 NAND2X1_3
*81 OAI21X1_3
*82 NAND2X1_5
*83 OAI21X1_5
*84 NAND2X1_2
*85 OAI21X1_2
*86 OAI21X1_7
*87 NAND2X1_7
*88 OAI21X1_1
*89 NAND2X1_1
*90 _706_
*91 NAND3X1_2
*92 NAND2X1_13
*93 OAI21X1_12
*94 OAI21X1_13
*95 NAND2X1_14
*96 OAI21X1_15
*97 NAND2X1_11
*98 OAI21X1_10
*99 NAND2X1_16
*100 OAI21X1_14
*101 NAND2X1_15
*102 NAND2X1_10
*103 OAI21X1_9
*104 NAND2X1_17
*105 OAI21X1_16
*106 NAND2X1_12
*107 OAI21X1_11
*108 _728_
*109 NAND3X1_3
*110 OAI21X1_22
*111 NAND2X1_25
*112 NAND2X1_27
*113 OAI21X1_24
*114 NAND2X1_20
*115 OAI21X1_19
*116 OAI21X1_17
*117 NAND2X1_22
*118 NAND2X1_23
*119 OAI21X1_20
*120 NAND2X1_26
*121 NAND2X1_24
*122 OAI21X1_21
*123 OAI21X1_23
*124 OAI21X1_18
*125 NAND2X1_21
*126 _737_
*127 AND2X2_1
*128 AOI21X1_4
*129 NOR2X1_5
*130 AOI21X1_8
*131 NOR2X1_9
*132 AOI21X1_6
*133 NOR2X1_7
*134 NOR2X1_2
*135 AOI21X1_1
*136 AOI21X1_3
*137 NOR2X1_4
*138 AOI21X1_7
*139 NOR2X1_8
*140 AOI21X1_5
*141 NOR2X1_6
*142 AOI21X1_2
*143 NOR2X1_3
*144 _757_
*145 NAND2X1_29
*146 OAI21X1_32
*147 NAND2X1_37
*148 NAND2X1_35
*149 OAI21X1_30
*150 OAI21X1_28
*151 NAND2X1_33
*152 OAI21X1_31
*153 NAND2X1_36
*154 NAND2X1_34
*155 OAI21X1_29
*156 OAI21X1_26
*157 NAND2X1_31
*158 OAI21X1_25
*159 NAND2X1_30
*160 OAI21X1_27
*161 NAND2X1_32
*162 _766_
*163 NAND3X1_4
*164 NAND2X1_41
*165 OAI21X1_36
*166 OAI21X1_40
*167 NAND2X1_45
*168 OAI21X1_37
*169 NAND2X1_42
*170 NAND2X1_40
*171 OAI21X1_35
*172 OAI21X1_33
*173 NAND2X1_38
*174 OAI21X1_38
*175 NAND2X1_43
*176 NAND2X1_39
*177 OAI21X1_34
*178 NAND2X1_44
*179 OAI21X1_39
*180 _775_
*181 NAND3X1_5
*182 OAI21X1_46
*183 NAND2X1_51
*184 NAND2X1_48
*185 NAND2X1_46
*186 OAI21X1_41
*187 OAI21X1_43
*188 NAND2X1_49
*189 OAI21X1_44
*190 OAI21X1_47
*191 NAND2X1_52
*192 OAI21X1_42
*193 NAND2X1_47
*194 NAND2X1_50
*195 OAI21X1_45
*196 NAND2X1_53
*197 OAI21X1_48
*198 _784_
*199 AND2X2_2
*200 AOI21X1_12
*201 NOR2X1_15
*202 NOR2X1_17
*203 AOI21X1_14
*204 AOI21X1_16
*205 NOR2X1_19
*206 AOI21X1_9
*207 NOR2X1_12
*208 AOI21X1_11
*209 NOR2X1_14
*210 AOI21X1_10
*211 NOR2X1_13
*212 AOI21X1_15
*213 NOR2X1_18
*214 NOR2X1_16
*215 AOI21X1_13
*216 _793_
*217 NAND2X1_54
*218 OAI21X1_56
*219 NAND2X1_62
*220 NAND2X1_60
*221 OAI21X1_54
*222 OAI21X1_51
*223 NAND2X1_57
*224 OAI21X1_49
*225 NAND2X1_55
*226 NAND2X1_59
*227 OAI21X1_53
*228 OAI21X1_50
*229 NAND2X1_61
*230 OAI21X1_55
*231 NAND2X1_58
*232 OAI21X1_52
*233 NAND2X1_56
*234 _802_
*235 NAND2X1_63
*236 OAI21X1_60
*237 NAND2X1_67
*238 OAI21X1_62
*239 NAND2X1_69
*240 NAND2X1_71
*241 OAI21X1_64
*242 NAND2X1_65
*243 OAI21X1_58
*244 OAI21X1_61
*245 NAND2X1_68
*246 OAI21X1_63
*247 NAND2X1_70
*248 OAI21X1_57
*249 NAND2X1_64
*250 OAI21X1_59
*251 NAND2X1_66
*252 _812_
*253 NAND3X1_6
*254 OAI21X1_72
*255 NAND2X1_79
*256 NAND2X1_72
*257 OAI21X1_70
*258 NAND2X1_77
*259 OAI21X1_65
*260 NAND2X1_74
*261 OAI21X1_67
*262 NAND2X1_78
*263 OAI21X1_71
*264 OAI21X1_68
*265 NAND2X1_75
*266 OAI21X1_66
*267 NAND2X1_73
*268 NAND2X1_76
*269 OAI21X1_69
*270 _840_
*271 NAND2X1_82
*272 NAND2X1_90
*273 OAI21X1_80
*274 NAND2X1_83
*275 OAI21X1_73
*276 OAI21X1_78
*277 OAI21X1_75
*278 NAND2X1_85
*279 NAND2X1_88
*280 NAND2X1_86
*281 OAI21X1_76
*282 NAND2X1_87
*283 OAI21X1_77
*284 OAI21X1_79
*285 NAND2X1_89
*286 OAI21X1_74
*287 NAND2X1_84
*288 _859_
*289 NOR2X1_21
*290 NOR2X1_25
*291 AOI21X1_20
*292 NOR2X1_26
*293 AOI21X1_21
*294 NOR2X1_28
*295 AOI21X1_23
*296 NOR2X1_23
*297 AOI21X1_18
*298 NOR2X1_24
*299 AOI21X1_19
*300 NOR2X1_27
*301 AOI21X1_22
*302 AOI21X1_17
*303 NOR2X1_22
*304 AOI21X1_24
*305 NOR2X1_29
*306 _273_
*307 NAND3X1_7
*308 NAND2X1_95
*309 OAI21X1_100
*310 NAND2X1_99
*311 OAI21X1_104
*312 NAND2X1_94
*313 OAI21X1_99
*314 OAI21X1_98
*315 NAND2X1_93
*316 NAND2X1_96
*317 OAI21X1_101
*318 OAI21X1_103
*319 NAND2X1_98
*320 OAI21X1_102
*321 NAND2X1_97
*322 NAND2X1_92
*323 OAI21X1_97
*324 _302_
*325 NOR2X1_31
*326 NOR2X1_38
*327 AOI21X1_31
*328 NOR2X1_34
*329 AOI21X1_27
*330 NOR2X1_36
*331 AOI21X1_29
*332 NOR2X1_33
*333 AOI21X1_26
*334 AOI21X1_25
*335 NOR2X1_32
*336 AOI21X1_30
*337 NOR2X1_37
*338 NOR2X1_35
*339 AOI21X1_28
*340 NOR2X1_39
*341 AOI21X1_32
*342 _320_
*343 NAND3X1_8
*344 NAND2X1_106
*345 OAI21X1_108
*346 OAI21X1_111
*347 NAND2X1_109
*348 NAND2X1_105
*349 OAI21X1_107
*350 OAI21X1_106
*351 NAND2X1_104
*352 NAND2X1_110
*353 OAI21X1_112
*354 OAI21X1_110
*355 NAND2X1_108
*356 NAND2X1_103
*357 OAI21X1_105
*358 NAND2X1_107
*359 OAI21X1_109
*360 _329_
*361 NAND2X1_111
*362 OAI21X1_116
*363 NAND2X1_115
*364 OAI21X1_119
*365 NAND2X1_118
*366 OAI21X1_117
*367 NAND2X1_116
*368 NAND2X1_113
*369 OAI21X1_114
*370 NAND2X1_114
*371 OAI21X1_115
*372 OAI21X1_113
*373 NAND2X1_112
*374 OAI21X1_118
*375 NAND2X1_117
*376 NAND2X1_119
*377 OAI21X1_120
*378 _338_
*379 NAND3X1_9
*380 OAI21X1_128
*381 NAND2X1_127
*382 OAI21X1_121
*383 NAND2X1_120
*384 OAI21X1_126
*385 NAND2X1_125
*386 OAI21X1_124
*387 NAND2X1_123
*388 OAI21X1_127
*389 NAND2X1_126
*390 NAND2X1_121
*391 OAI21X1_122
*392 NAND2X1_124
*393 OAI21X1_125
*394 OAI21X1_123
*395 NAND2X1_122
*396 _651_
*397 NOR2X1_49
*398 NOR2X1_53
*399 AOI21X1_49
*400 NOR2X1_52
*401 AOI21X1_48
*402 NOR2X1_56
*403 AOI21X1_52
*404 NOR2X1_51
*405 AOI21X1_47
*406 AOI21X1_50
*407 NOR2X1_54
*408 AOI21X1_53
*409 NOR2X1_57
*410 NOR2X1_55
*411 AOI21X1_51
*412 NOR2X1_50
*413 AOI21X1_46
*414 _665_
*415 NAND3X1_11
*416 NAND2X1_162
*417 OAI21X1_156
*418 NAND2X1_163
*419 OAI21X1_157
*420 NAND2X1_165
*421 OAI21X1_159
*422 NAND2X1_160
*423 OAI21X1_154
*424 OAI21X1_158
*425 NAND2X1_164
*426 OAI21X1_160
*427 NAND2X1_166
*428 NAND2X1_161
*429 OAI21X1_155
*430 NAND2X1_159
*431 OAI21X1_153
*432 _675_
*433 NAND3X1_12
*434 OAI21X1_164
*435 NAND2X1_170
*436 NAND2X1_174
*437 OAI21X1_168
*438 OAI21X1_163
*439 NAND2X1_169
*440 OAI21X1_162
*441 OAI21X1_165
*442 NAND2X1_171
*443 NAND2X1_173
*444 OAI21X1_167
*445 NAND2X1_168
*446 OAI21X1_166
*447 NAND2X1_172
*448 OAI21X1_161
*449 NAND2X1_167
*450 _684_
*451 AND2X2_4
*452 NOR2X1_64
*453 NOR2X1_67
*454 AOI21X1_60
*455 NOR2X1_65
*456 AOI21X1_58
*457 AOI21X1_57
*458 NOR2X1_62
*459 AOI21X1_55
*460 AOI21X1_59
*461 NOR2X1_66
*462 AOI21X1_61
*463 NOR2X1_68
*464 NOR2X1_63
*465 AOI21X1_56
*466 NOR2X1_61
*467 AOI21X1_54
*468 _614_
*469 NOR2X1_46
*470 AND2X2_3
*471 NAND2X1_155
*472 NAND2X1_91
*473 INVX2_2
*474 NAND3X1_3
*475 NAND3X1_1
*476 NAND3X1_8
*477 NAND3X1_12
*478 NAND3X1_6
*479 NAND3X1_9
*480 NAND3X1_7
*481 NAND3X1_11
*482 NAND3X1_2
*483 NAND3X1_4
*484 NAND3X1_5
*485 column_address[0_bF_buf10]
*486 BUFX4_29
*487 MUX2X1_138
*488 MUX2X1_171
*489 MUX2X1_154
*490 MUX2X1_220
*491 MUX2X1_88
*492 MUX2X1_204
*493 MUX2X1_187
*494 MUX2X1_105
*495 NAND2X1_9
*496 MUX2X1_237
*497 MUX2X1_72
*498 MUX2X1_121
*499 column_address[0_bF_buf9]
*500 BUFX4_30
*501 MUX2X1_106
*502 MUX2X1_57
*503 MUX2X1_123
*504 MUX2X1_238
*505 MUX2X1_189
*506 MUX2X1_73
*507 MUX2X1_205
*508 MUX2X1_90
*509 MUX2X1_139
*510 MUX2X1_172
*511 MUX2X1_156
*512 MUX2X1_222
*513 column_address[0_bF_buf8]
*514 BUFX4_31
*515 MUX2X1_108
*516 MUX2X1_58
*517 MUX2X1_75
*518 MUX2X1_124
*519 MUX2X1_91
*520 MUX2X1_207
*521 MUX2X1_223
*522 MUX2X1_157
*523 MUX2X1_174
*524 MUX2X1_141
*525 MUX2X1_240
*526 MUX2X1_190
*527 column_address[0_bF_buf7]
*528 BUFX4_32
*529 MUX2X1_208
*530 MUX2X1_109
*531 MUX2X1_60
*532 MUX2X1_225
*533 MUX2X1_76
*534 MUX2X1_142
*535 MUX2X1_241
*536 MUX2X1_192
*537 MUX2X1_126
*538 MUX2X1_93
*539 MUX2X1_175
*540 MUX2X1_159
*541 column_address[0_bF_buf6]
*542 BUFX4_33
*543 MUX2X1_210
*544 MUX2X1_111
*545 MUX2X1_61
*546 MUX2X1_177
*547 MUX2X1_226
*548 MUX2X1_243
*549 MUX2X1_78
*550 MUX2X1_144
*551 MUX2X1_193
*552 MUX2X1_127
*553 MUX2X1_94
*554 MUX2X1_160
*555 column_address[0_bF_buf5]
*556 BUFX4_34
*557 MUX2X1_162
*558 MUX2X1_211
*559 MUX2X1_112
*560 MUX2X1_178
*561 MUX2X1_63
*562 MUX2X1_228
*563 MUX2X1_195
*564 MUX2X1_145
*565 MUX2X1_96
*566 MUX2X1_244
*567 MUX2X1_79
*568 MUX2X1_129
*569 column_address[0_bF_buf4]
*570 BUFX4_35
*571 MUX2X1_81
*572 MUX2X1_163
*573 MUX2X1_114
*574 MUX2X1_180
*575 MUX2X1_64
*576 MUX2X1_229
*577 MUX2X1_130
*578 MUX2X1_147
*579 MUX2X1_196
*580 MUX2X1_246
*581 MUX2X1_213
*582 MUX2X1_97
*583 column_address[0_bF_buf3]
*584 BUFX4_36
*585 MUX2X1_148
*586 MUX2X1_132
*587 MUX2X1_214
*588 MUX2X1_247
*589 MUX2X1_231
*590 MUX2X1_198
*591 MUX2X1_99
*592 MUX2X1_165
*593 MUX2X1_66
*594 MUX2X1_115
*595 MUX2X1_181
*596 MUX2X1_82
*597 column_address[0_bF_buf2]
*598 BUFX4_37
*599 INVX2_3
*600 MUX2X1_67
*601 MUX2X1_84
*602 MUX2X1_133
*603 MUX2X1_100
*604 MUX2X1_166
*605 MUX2X1_216
*606 MUX2X1_117
*607 MUX2X1_150
*608 MUX2X1_183
*609 MUX2X1_232
*610 MUX2X1_199
*611 column_address[0_bF_buf1]
*612 BUFX4_38
*613 MUX2X1_85
*614 MUX2X1_201
*615 NOR2X1_58
*616 MUX2X1_234
*617 MUX2X1_135
*618 MUX2X1_151
*619 MUX2X1_184
*620 MUX2X1_217
*621 MUX2X1_118
*622 MUX2X1_102
*623 MUX2X1_69
*624 MUX2X1_168
*625 _674_
*626 NOR2X1_60
*627 AOI22X1_16
*628 AOI22X1_12
*629 NAND3X1_12
*630 NAND3X1_7
*631 AOI22X1_4
*632 AOI22X1_32
*633 AOI22X1_24
*634 NAND3X1_1
*635 AOI22X1_20
*636 AOI22X1_28
*637 AND2X2_1
*638 AOI22X1_8
*639 _664_
*640 NOR2X1_59
*641 NAND3X1_11
*642 NAND3X1_2
*643 NAND3X1_3
*644 AOI22X1_16
*645 AOI22X1_12
*646 AOI22X1_32
*647 AOI22X1_4
*648 AOI22X1_24
*649 AND2X2_4
*650 AOI22X1_28
*651 AOI22X1_20
*652 AOI22X1_8
*653 _755_
*654 NOR2X1_10
*655 AOI22X1_14
*656 NAND2X1_54
*657 NAND3X1_5
*658 NAND2X1_29
*659 AOI22X1_30
*660 AOI22X1_22
*661 AOI22X1_2
*662 AOI22X1_10
*663 AOI22X1_18
*664 AND2X2_2
*665 AOI22X1_6
*666 AOI22X1_26
*667 _283_
*668 NOR2X1_30
*669 INVX1_49
*670 NAND2X1_100
*671 NAND2X1_102
*672 AOI22X1_31
*673 AOI22X1_3
*674 AOI22X1_23
*675 AOI22X1_27
*676 AOI22X1_15
*677 AOI22X1_11
*678 NAND2X1_101
*679 AOI22X1_19
*680 AOI22X1_7
*681 column_address[0]
*682 DFFPOSX1_196
*683 BUFX4_34
*684 BUFX4_31
*685 BUFX4_37
*686 BUFX4_35
*687 BUFX4_33
*688 BUFX4_30
*689 BUFX4_36
*690 BUFX4_38
*691 BUFX4_32
*692 BUFX4_29
*693 BUFX4_39
*694 column_address[0_bF_buf0]
*695 BUFX4_39
*696 MUX2X1_153
*697 MUX2X1_219
*698 MUX2X1_136
*699 MUX2X1_87
*700 MUX2X1_169
*701 MUX2X1_103
*702 MUX2X1_120
*703 MUX2X1_70
*704 MUX2X1_235
*705 MUX2X1_186
*706 MUX2X1_202
*707 _716_
*708 NAND2X1_18
*709 OAI21X1_85
*710 OAI21X1_91
*711 OAI21X1_81
*712 INVX8_1
*713 OAI21X1_95
*714 NOR2X1_21
*715 OAI21X1_87
*716 OR2X2_1
*717 OAI21X1_83
*718 OAI21X1_93
*719 OAI21X1_89
*720 _811_
*721 INVX8_2
*722 NAND3X1_8
*723 NAND3X1_6
*724 NAND3X1_9
*725 AOI22X1_31
*726 AOI22X1_3
*727 AOI22X1_23
*728 AOI22X1_15
*729 AOI22X1_11
*730 AOI22X1_27
*731 AOI22X1_19
*732 AOI22X1_7
*733 _638_
*734 NAND2X1_155
*735 NOR2X1_49
*736 INVX2_5
*737 OAI21X1_143
*738 OAI21X1_145
*739 OAI21X1_149
*740 OAI21X1_139
*741 NOR2X1_21
*742 OAI21X1_151
*743 OAI21X1_137
*744 OAI21X1_147
*745 OAI21X1_141
*746 _717_
*747 INVX8_1
*748 NAND2X1_80
*749 AOI22X1_29
*750 NAND2X1_19
*751 AOI22X1_13
*752 AOI22X1_17
*753 AOI22X1_5
*754 AOI22X1_25
*755 AOI22X1_9
*756 AOI22X1_1
*757 AOI22X1_21
*758 _637_
*759 INVX8_11
*760 AOI22X1_9
*761 AOI22X1_13
*762 NAND2X1_156
*763 AOI22X1_17
*764 AOI22X1_29
*765 NAND3X1_4
*766 AOI22X1_1
*767 AOI22X1_21
*768 AOI22X1_5
*769 AOI22X1_25
*770 _636_
*771 NAND2X1_154
*772 OAI21X1_141
*773 OAI21X1_147
*774 OAI21X1_137
*775 OAI21X1_151
*776 NOR2X1_20
*777 OAI21X1_145
*778 INVX8_11
*779 OAI21X1_143
*780 OAI21X1_149
*781 OAI21X1_139
*782 _849_
*783 NAND2X1_91
*784 OAI21X1_95
*785 NOR2X1_31
*786 OAI21X1_89
*787 OAI21X1_87
*788 OR2X2_1
*789 OAI21X1_83
*790 OAI21X1_93
*791 OAI21X1_81
*792 OAI21X1_91
*793 OAI21X1_85
*794 column_address[1_bF_buf7]
*795 BUFX4_11
*796 NAND2X1_9
*797 MUX2X1_152
*798 MUX2X1_248
*799 MUX2X1_128
*800 MUX2X1_200
*801 MUX2X1_80
*802 MUX2X1_176
*803 MUX2X1_104
*804 MUX2X1_224
*805 column_address[1_bF_buf6]
*806 BUFX4_12
*807 NOR2X1_45
*808 MUX2X1_131
*809 MUX2X1_155
*810 MUX2X1_227
*811 MUX2X1_59
*812 MUX2X1_179
*813 MUX2X1_107
*814 MUX2X1_83
*815 MUX2X1_203
*816 column_address[1_bF_buf5]
*817 BUFX4_13
*818 INVX2_6
*819 MUX2X1_110
*820 MUX2X1_62
*821 MUX2X1_182
*822 MUX2X1_86
*823 MUX2X1_206
*824 MUX2X1_134
*825 MUX2X1_158
*826 MUX2X1_230
*827 rw
*828 NAND2X1_143
*829 NAND2X1_134
*830 NAND2X1_128
*831 NAND2X1_146
*832 NAND2X1_131
*833 NAND2X1_140
*834 NAND2X1_137
*835 INVX4_1
*836 NAND2X1_149
*837 _617_
*838 NOR2X1_47
*839 AOI22X1_26
*840 AOI22X1_6
*841 AOI22X1_18
*842 AOI22X1_14
*843 AND2X2_3
*844 AOI22X1_30
*845 AOI22X1_22
*846 AOI22X1_2
*847 AOI22X1_10
*848 _612_
*849 INVX4_1
*850 OAI21X1_131
*851 OAI21X1_134
*852 OAI21X1_136
*853 OAI21X1_129
*854 OAI21X1_130
*855 OAI21X1_133
*856 OAI21X1_135
*857 OAI21X1_132
*858 NOR2X1_46
*859 _613_
*860 NAND3X1_10
*861 AOI21X1_43
*862 AOI21X1_38
*863 AOI21X1_41
*864 NOR2X1_46
*865 AOI21X1_45
*866 AOI21X1_40
*867 AOI21X1_39
*868 AOI21X1_42
*869 AOI21X1_44
*870 column_address[1]
*871 DFFPOSX1_197
*872 BUFX4_16
*873 BUFX4_17
*874 BUFX4_11
*875 BUFX4_14
*876 BUFX4_18
*877 BUFX4_12
*878 BUFX4_13
*879 BUFX4_15
*880 column_address[1_bF_buf4]
*881 BUFX4_14
*882 MUX2X1_137
*883 MUX2X1_89
*884 MUX2X1_161
*885 MUX2X1_209
*886 MUX2X1_185
*887 MUX2X1_233
*888 MUX2X1_65
*889 MUX2X1_113
*890 column_address[1_bF_buf3]
*891 BUFX4_15
*892 MUX2X1_140
*893 MUX2X1_212
*894 MUX2X1_92
*895 MUX2X1_164
*896 MUX2X1_188
*897 MUX2X1_236
*898 MUX2X1_68
*899 MUX2X1_116
*900 column_address[1_bF_buf2]
*901 BUFX4_16
*902 MUX2X1_143
*903 MUX2X1_119
*904 MUX2X1_71
*905 MUX2X1_191
*906 MUX2X1_239
*907 MUX2X1_215
*908 MUX2X1_167
*909 MUX2X1_95
*910 column_address[1_bF_buf1]
*911 BUFX4_17
*912 MUX2X1_146
*913 MUX2X1_122
*914 MUX2X1_74
*915 MUX2X1_242
*916 MUX2X1_194
*917 MUX2X1_218
*918 MUX2X1_98
*919 MUX2X1_170
*920 column_address[1_bF_buf0]
*921 BUFX4_18
*922 MUX2X1_149
*923 MUX2X1_221
*924 MUX2X1_173
*925 MUX2X1_101
*926 MUX2X1_197
*927 MUX2X1_245
*928 MUX2X1_77
*929 MUX2X1_125
*930 _720_
*931 NAND2X1_19
*932 MUX2X1_8
*933 MUX2X1_4
*934 MUX2X1_5
*935 MUX2X1_2
*936 MUX2X1_3
*937 MUX2X1_1
*938 MUX2X1_6
*939 MUX2X1_7
*940 _747_
*941 NAND2X1_28
*942 MUX2X1_12
*943 MUX2X1_10
*944 MUX2X1_13
*945 MUX2X1_15
*946 MUX2X1_16
*947 MUX2X1_14
*948 MUX2X1_9
*949 MUX2X1_11
*950 _822_
*951 NAND2X1_80
*952 MUX2X1_24
*953 MUX2X1_22
*954 MUX2X1_17
*955 MUX2X1_19
*956 MUX2X1_23
*957 MUX2X1_18
*958 MUX2X1_20
*959 MUX2X1_21
*960 _831_
*961 NAND2X1_81
*962 MUX2X1_25
*963 MUX2X1_27
*964 MUX2X1_30
*965 MUX2X1_32
*966 MUX2X1_28
*967 MUX2X1_29
*968 MUX2X1_26
*969 MUX2X1_31
*970 _850_
*971 OR2X2_1
*972 OAI21X1_88
*973 OAI21X1_90
*974 OAI21X1_96
*975 OAI21X1_82
*976 OAI21X1_92
*977 OAI21X1_86
*978 OAI21X1_84
*979 OAI21X1_94
*980 _284_
*981 NAND2X1_100
*982 MUX2X1_39
*983 MUX2X1_36
*984 MUX2X1_33
*985 MUX2X1_38
*986 MUX2X1_40
*987 MUX2X1_35
*988 MUX2X1_34
*989 MUX2X1_37
*990 _293_
*991 NAND2X1_101
*992 MUX2X1_47
*993 MUX2X1_45
*994 MUX2X1_42
*995 MUX2X1_43
*996 MUX2X1_44
*997 MUX2X1_41
*998 MUX2X1_46
*999 MUX2X1_48
*1000 _312_
*1001 NAND2X1_102
*1002 MUX2X1_56
*1003 MUX2X1_52
*1004 MUX2X1_54
*1005 MUX2X1_49
*1006 MUX2X1_55
*1007 MUX2X1_51
*1008 MUX2X1_53
*1009 MUX2X1_50
*1010 _619_
*1011 NAND2X1_153
*1012 MUX2X1_251
*1013 MUX2X1_249
*1014 MUX2X1_252
*1015 MUX2X1_253
*1016 MUX2X1_255
*1017 MUX2X1_250
*1018 MUX2X1_256
*1019 MUX2X1_254
*1020 _640_
*1021 NAND2X1_156
*1022 OAI21X1_144
*1023 OAI21X1_146
*1024 OAI21X1_150
*1025 OAI21X1_140
*1026 OAI21X1_142
*1027 OAI21X1_148
*1028 OAI21X1_138
*1029 OAI21X1_152
*1030 _629__bF_buf4
*1031 BUFX4_1
*1032 MUX2X1_38
*1033 AOI21X1_51
*1034 AOI21X1_30
*1035 MUX2X1_54
*1036 OAI21X1_70
*1037 OAI21X1_126
*1038 MUX2X1_254
*1039 _629__bF_buf3
*1040 BUFX4_2
*1041 OAI21X1_158
*1042 OAI21X1_14
*1043 MUX2X1_14
*1044 OAI21X1_22
*1045 AOI21X1_59
*1046 MUX2X1_30
*1047 OAI21X1_62
*1048 _623__bF_buf4
*1049 BUFX4_6
*1050 MUX2X1_3
*1051 AOI21X1_19
*1052 OAI21X1_35
*1053 OAI21X1_115
*1054 OAI21X1_43
*1055 OAI21X1_86
*1056 MUX2X1_19
*1057 _623__bF_buf3
*1058 BUFX4_7
*1059 MUX2X1_11
*1060 OAI21X1_142
*1061 AOI21X1_11
*1062 OAI21X1_51
*1063 OAI21X1_27
*1064 OAI21X1_59
*1065 MUX2X1_27
*1066 _631__bF_buf4
*1067 BUFX4_19
*1068 MUX2X1_55
*1069 OAI21X1_71
*1070 MUX2X1_47
*1071 OAI21X1_127
*1072 OAI21X1_111
*1073 AOI21X1_52
*1074 AOI21X1_31
*1075 _631__bF_buf3
*1076 BUFX4_20
*1077 OAI21X1_94
*1078 OAI21X1_55
*1079 MUX2X1_7
*1080 OAI21X1_39
*1081 AOI21X1_15
*1082 MUX2X1_23
*1083 AOI21X1_23
*1084 _625__bF_buf4
*1085 BUFX4_24
*1086 OAI21X1_60
*1087 OAI21X1_156
*1088 OAI21X1_116
*1089 AOI21X1_57
*1090 OAI21X1_36
*1091 MUX2X1_252
*1092 MUX2X1_12
*1093 _625__bF_buf3
*1094 BUFX4_25
*1095 OAI21X1_12
*1096 OAI21X1_20
*1097 OAI21X1_44
*1098 OAI21X1_144
*1099 OAI21X1_52
*1100 AOI21X1_12
*1101 OAI21X1_76
*1102 _633__bF_buf4
*1103 BUFX4_40
*1104 OAI21X1_16
*1105 AOI21X1_61
*1106 OAI21X1_160
*1107 AOI21X1_32
*1108 MUX2X1_56
*1109 OAI21X1_64
*1110 MUX2X1_40
*1111 _633__bF_buf3
*1112 BUFX4_41
*1113 MUX2X1_8
*1114 OAI21X1_96
*1115 AOI21X1_24
*1116 OAI21X1_120
*1117 MUX2X1_24
*1118 OAI21X1_32
*1119 AOI21X1_16
*1120 _627__bF_buf4
*1121 BUFX4_45
*1122 AOI21X1_58
*1123 OAI21X1_77
*1124 AOI21X1_13
*1125 OAI21X1_53
*1126 OAI21X1_45
*1127 OAI21X1_29
*1128 OAI21X1_146
*1129 _627__bF_buf3
*1130 BUFX4_46
*1131 OAI21X1_90
*1132 OAI21X1_157
*1133 AOI21X1_21
*1134 OAI21X1_13
*1135 OAI21X1_37
*1136 OAI21X1_21
*1137 OAI21X1_117
*1138 _621__bF_buf4
*1139 BUFX4_50
*1140 OAI21X1_50
*1141 OAI21X1_114
*1142 OAI21X1_42
*1143 OAI21X1_74
*1144 OAI21X1_140
*1145 OAI21X1_34
*1146 OAI21X1_26
*1147 _621__bF_buf3
*1148 BUFX4_51
*1149 OAI21X1_2
*1150 OAI21X1_162
*1151 MUX2X1_34
*1152 AOI21X1_47
*1153 MUX2X1_250
*1154 OAI21X1_106
*1155 AOI21X1_26
*1156 _609__bF_buf4
*1157 BUFX4_55
*1158 OAI21X1_9
*1159 OAI21X1_153
*1160 AOI21X1_1
*1161 OAI21X1_1
*1162 AOI21X1_46
*1163 OAI21X1_97
*1164 OAI21X1_161
*1165 _609__bF_buf3
*1166 BUFX4_56
*1167 MUX2X1_41
*1168 MUX2X1_33
*1169 AOI21X1_25
*1170 MUX2X1_49
*1171 OAI21X1_105
*1172 OAI21X1_121
*1173 OAI21X1_65
*1174 _661_
*1175 NOR2X1_58
*1176 NAND2X1_81
*1177 NAND3X1_11
*1178 NAND2X1_111
*1179 NAND2X1_91
*1180 NAND3X1_12
*1181 NAND3X1_9
*1182 NAND3X1_5
*1183 ras
*1184 NOR2X1_42
*1185 AOI21X1_35
*1186 NOR2X1_40
*1187 AOI21X1_33
*1188 NOR2X1_41
*1189 AOI21X1_34
*1190 NAND3X1_10
*1191 _629__bF_buf2
*1192 BUFX4_3
*1193 OAI21X1_110
*1194 MUX2X1_46
*1195 OAI21X1_6
*1196 AOI21X1_6
*1197 OAI21X1_166
*1198 OAI21X1_102
*1199 _629__bF_buf1
*1200 BUFX4_4
*1201 OAI21X1_54
*1202 MUX2X1_22
*1203 OAI21X1_92
*1204 OAI21X1_46
*1205 AOI21X1_14
*1206 OAI21X1_30
*1207 _629__bF_buf0
*1208 BUFX4_5
*1209 AOI21X1_22
*1210 OAI21X1_148
*1211 MUX2X1_6
*1212 OAI21X1_118
*1213 OAI21X1_38
*1214 OAI21X1_78
*1215 _623__bF_buf2
*1216 BUFX4_8
*1217 MUX2X1_43
*1218 MUX2X1_51
*1219 OAI21X1_99
*1220 OAI21X1_163
*1221 MUX2X1_35
*1222 AOI21X1_27
*1223 _623__bF_buf1
*1224 BUFX4_9
*1225 OAI21X1_123
*1226 AOI21X1_3
*1227 OAI21X1_3
*1228 OAI21X1_67
*1229 OAI21X1_107
*1230 AOI21X1_48
*1231 _623__bF_buf0
*1232 BUFX4_10
*1233 MUX2X1_251
*1234 OAI21X1_19
*1235 AOI21X1_56
*1236 OAI21X1_11
*1237 OAI21X1_75
*1238 OAI21X1_155
*1239 _631__bF_buf2
*1240 BUFX4_21
*1241 MUX2X1_15
*1242 OAI21X1_63
*1243 MUX2X1_255
*1244 MUX2X1_31
*1245 OAI21X1_119
*1246 OAI21X1_167
*1247 _631__bF_buf1
*1248 BUFX4_22
*1249 OAI21X1_159
*1250 MUX2X1_39
*1251 OAI21X1_15
*1252 OAI21X1_103
*1253 AOI21X1_7
*1254 OAI21X1_7
*1255 _631__bF_buf0
*1256 BUFX4_23
*1257 OAI21X1_23
*1258 AOI21X1_60
*1259 OAI21X1_47
*1260 OAI21X1_150
*1261 OAI21X1_31
*1262 OAI21X1_79
*1263 _625__bF_buf2
*1264 BUFX4_26
*1265 AOI21X1_49
*1266 OAI21X1_108
*1267 MUX2X1_44
*1268 MUX2X1_36
*1269 OAI21X1_124
*1270 OAI21X1_68
*1271 _625__bF_buf1
*1272 BUFX4_27
*1273 MUX2X1_4
*1274 AOI21X1_20
*1275 OAI21X1_28
*1276 MUX2X1_20
*1277 OAI21X1_88
*1278 MUX2X1_28
*1279 _625__bF_buf0
*1280 BUFX4_28
*1281 AOI21X1_4
*1282 OAI21X1_4
*1283 AOI21X1_28
*1284 MUX2X1_52
*1285 OAI21X1_164
*1286 OAI21X1_100
*1287 _633__bF_buf2
*1288 BUFX4_42
*1289 AOI21X1_53
*1290 OAI21X1_128
*1291 OAI21X1_72
*1292 MUX2X1_32
*1293 OAI21X1_112
*1294 MUX2X1_48
*1295 _633__bF_buf1
*1296 BUFX4_43
*1297 OAI21X1_80
*1298 OAI21X1_24
*1299 OAI21X1_40
*1300 OAI21X1_56
*1301 OAI21X1_48
*1302 OAI21X1_152
*1303 _633__bF_buf0
*1304 BUFX4_44
*1305 AOI21X1_8
*1306 MUX2X1_256
*1307 OAI21X1_8
*1308 MUX2X1_16
*1309 OAI21X1_168
*1310 OAI21X1_104
*1311 _627__bF_buf2
*1312 BUFX4_47
*1313 OAI21X1_61
*1314 OAI21X1_5
*1315 OAI21X1_165
*1316 AOI21X1_5
*1317 OAI21X1_69
*1318 OAI21X1_125
*1319 _627__bF_buf1
*1320 BUFX4_48
*1321 AOI21X1_50
*1322 MUX2X1_53
*1323 MUX2X1_37
*1324 AOI21X1_29
*1325 MUX2X1_45
*1326 OAI21X1_109
*1327 _627__bF_buf0
*1328 BUFX4_49
*1329 MUX2X1_253
*1330 OAI21X1_101
*1331 MUX2X1_29
*1332 MUX2X1_13
*1333 MUX2X1_5
*1334 MUX2X1_21
*1335 _621__bF_buf2
*1336 BUFX4_52
*1337 OAI21X1_18
*1338 OAI21X1_10
*1339 OAI21X1_58
*1340 OAI21X1_122
*1341 OAI21X1_154
*1342 MUX2X1_10
*1343 _621__bF_buf1
*1344 BUFX4_53
*1345 MUX2X1_18
*1346 AOI21X1_10
*1347 AOI21X1_18
*1348 OAI21X1_84
*1349 MUX2X1_2
*1350 AOI21X1_55
*1351 _621__bF_buf0
*1352 BUFX4_54
*1353 MUX2X1_26
*1354 AOI21X1_2
*1355 OAI21X1_98
*1356 MUX2X1_50
*1357 MUX2X1_42
*1358 OAI21X1_66
*1359 _609__bF_buf2
*1360 BUFX4_57
*1361 AOI21X1_17
*1362 AOI21X1_54
*1363 OAI21X1_138
*1364 MUX2X1_17
*1365 MUX2X1_1
*1366 OAI21X1_73
*1367 _609__bF_buf1
*1368 BUFX4_58
*1369 OAI21X1_113
*1370 OAI21X1_41
*1371 OAI21X1_33
*1372 OAI21X1_49
*1373 OAI21X1_25
*1374 AOI21X1_9
*1375 _609__bF_buf0
*1376 BUFX4_59
*1377 MUX2X1_249
*1378 MUX2X1_25
*1379 OAI21X1_82
*1380 MUX2X1_9
*1381 OAI21X1_17
*1382 OAI21X1_57
*1383 clk_bF_buf3_bF_buf3
*1384 CLKBUF1_1
*1385 DFFPOSX1_157
*1386 DFFPOSX1_189
*1387 DFFPOSX1_77
*1388 DFFPOSX1_45
*1389 DFFPOSX1_61
*1390 clk_bF_buf4_bF_buf3
*1391 CLKBUF1_5
*1392 DFFPOSX1_12
*1393 DFFPOSX1_76
*1394 DFFPOSX1_252
*1395 DFFPOSX1_204
*1396 DFFPOSX1_28
*1397 clk_bF_buf5_bF_buf3
*1398 CLKBUF1_9
*1399 DFFPOSX1_219
*1400 DFFPOSX1_203
*1401 DFFPOSX1_43
*1402 DFFPOSX1_27
*1403 DFFPOSX1_235
*1404 clk_bF_buf6_bF_buf3
*1405 CLKBUF1_13
*1406 DFFPOSX1_42
*1407 DFFPOSX1_74
*1408 DFFPOSX1_58
*1409 DFFPOSX1_26
*1410 DFFPOSX1_202
*1411 clk_bF_buf7_bF_buf3
*1412 CLKBUF1_17
*1413 DFFPOSX1_41
*1414 DFFPOSX1_9
*1415 DFFPOSX1_73
*1416 DFFPOSX1_137
*1417 DFFPOSX1_89
*1418 clk_bF_buf8_bF_buf3
*1419 CLKBUF1_21
*1420 DFFPOSX1_120
*1421 DFFPOSX1_136
*1422 DFFPOSX1_104
*1423 DFFPOSX1_264
*1424 DFFPOSX1_248
*1425 clk_bF_buf9_bF_buf3
*1426 CLKBUF1_25
*1427 DFFPOSX1_151
*1428 DFFPOSX1_167
*1429 DFFPOSX1_103
*1430 DFFPOSX1_119
*1431 DFFPOSX1_183
*1432 clk_bF_buf10_bF_buf3
*1433 CLKBUF1_29
*1434 DFFPOSX1_22
*1435 DFFPOSX1_214
*1436 DFFPOSX1_38
*1437 DFFPOSX1_198
*1438 DFFPOSX1_86
*1439 clk_bF_buf11_bF_buf3
*1440 CLKBUF1_33
*1441 DFFPOSX1_213
*1442 DFFPOSX1_229
*1443 DFFPOSX1_245
*1444 DFFPOSX1_261
*1445 DFFPOSX1_197
*1446 clk_bF_buf12_bF_buf3
*1447 CLKBUF1_37
*1448 DFFPOSX1_36
*1449 DFFPOSX1_52
*1450 DFFPOSX1_148
*1451 DFFPOSX1_164
*1452 DFFPOSX1_180
*1453 clk_bF_buf13_bF_buf3
*1454 CLKBUF1_41
*1455 DFFPOSX1_83
*1456 DFFPOSX1_51
*1457 DFFPOSX1_259
*1458 DFFPOSX1_35
*1459 DFFPOSX1_19
*1460 clk_bF_buf14_bF_buf3
*1461 CLKBUF1_45
*1462 DFFPOSX1_194
*1463 DFFPOSX1_162
*1464 DFFPOSX1_66
*1465 DFFPOSX1_146
*1466 DFFPOSX1_242
*1467 clk_bF_buf15_bF_buf3
*1468 CLKBUF1_49
*1469 DFFPOSX1_49
*1470 DFFPOSX1_1
*1471 DFFPOSX1_129
*1472 DFFPOSX1_161
*1473 DFFPOSX1_97
*1474 _629_
*1475 INVX8_8
*1476 BUFX4_1
*1477 BUFX4_3
*1478 BUFX4_2
*1479 BUFX4_4
*1480 BUFX4_5
*1481 _623_
*1482 INVX8_5
*1483 BUFX4_7
*1484 BUFX4_6
*1485 BUFX4_10
*1486 BUFX4_9
*1487 BUFX4_8
*1488 _631_
*1489 INVX8_9
*1490 BUFX4_21
*1491 BUFX4_23
*1492 BUFX4_22
*1493 BUFX4_19
*1494 BUFX4_20
*1495 _625_
*1496 INVX8_6
*1497 BUFX4_26
*1498 BUFX4_28
*1499 BUFX4_27
*1500 BUFX4_25
*1501 BUFX4_24
*1502 _633_
*1503 INVX8_10
*1504 BUFX4_43
*1505 BUFX4_40
*1506 BUFX4_41
*1507 BUFX4_42
*1508 BUFX4_44
*1509 _627_
*1510 INVX8_7
*1511 BUFX4_45
*1512 BUFX4_46
*1513 BUFX4_49
*1514 BUFX4_47
*1515 BUFX4_48
*1516 _621_
*1517 INVX8_4
*1518 BUFX4_54
*1519 BUFX4_52
*1520 BUFX4_53
*1521 BUFX4_50
*1522 BUFX4_51
*1523 _609_
*1524 INVX8_3
*1525 BUFX4_57
*1526 BUFX4_58
*1527 BUFX4_59
*1528 BUFX4_56
*1529 BUFX4_55
*1530 _694_
*1531 INVX2_7
*1532 NAND2X1_28
*1533 NAND2X1_82
*1534 NAND3X1_3
*1535 NAND3X1_1
*1536 NAND3X1_8
*1537 _705_
*1538 INVX2_1
*1539 NAND3X1_2
*1540 NAND3X1_4
*1541 NAND2X1_63
*1542 NAND3X1_7
*1543 NAND3X1_6
*1544 row_address[0]
*1545 DFFPOSX1_97
*1546 NOR2X1_47
*1547 NAND2X1_18
*1548 INVX2_4
*1549 NOR2X1_59
*1550 NOR2X1_30
*1551 _639_
*1552 INVX2_5
*1553 AND2X2_4
*1554 NAND2X1_101
*1555 AND2X2_1
*1556 NAND2X1_156
*1557 AND2X2_2
*1558 _634_
*1559 INVX2_4
*1560 NAND2X1_154
*1561 NOR2X1_10
*1562 AOI21X1_33
*1563 NOR2X1_60
*1564 OR2X2_2
*1565 cas
*1566 NOR2X1_44
*1567 AOI21X1_36
*1568 AOI21X1_37
*1569 NOR2X1_43
*1570 NAND3X1_10
*1571 clk_bF_buf3
*1572 CLKBUF1_65
*1573 CLKBUF1_29
*1574 DFFPOSX1_238
*1575 DFFPOSX1_222
*1576 CLKBUF1_30
*1577 clk_bF_buf3_bF_buf2
*1578 CLKBUF1_2
*1579 DFFPOSX1_29
*1580 DFFPOSX1_141
*1581 DFFPOSX1_93
*1582 DFFPOSX1_205
*1583 clk_bF_buf3_bF_buf1
*1584 CLKBUF1_3
*1585 DFFPOSX1_237
*1586 DFFPOSX1_253
*1587 DFFPOSX1_269
*1588 DFFPOSX1_221
*1589 clk_bF_buf3_bF_buf0
*1590 CLKBUF1_4
*1591 DFFPOSX1_13
*1592 DFFPOSX1_173
*1593 DFFPOSX1_109
*1594 DFFPOSX1_125
*1595 clk_bF_buf4
*1596 CLKBUF1_64
*1597 DFFPOSX1_16
*1598 CLKBUF1_3
*1599 DFFPOSX1_80
*1600 DFFPOSX1_48
*1601 clk_bF_buf4_bF_buf2
*1602 CLKBUF1_6
*1603 DFFPOSX1_268
*1604 DFFPOSX1_124
*1605 DFFPOSX1_60
*1606 DFFPOSX1_108
*1607 clk_bF_buf4_bF_buf1
*1608 CLKBUF1_7
*1609 DFFPOSX1_188
*1610 DFFPOSX1_140
*1611 DFFPOSX1_172
*1612 DFFPOSX1_156
*1613 clk_bF_buf4_bF_buf0
*1614 CLKBUF1_8
*1615 DFFPOSX1_92
*1616 DFFPOSX1_236
*1617 DFFPOSX1_220
*1618 DFFPOSX1_44
*1619 clk_bF_buf5
*1620 CLKBUF1_63
*1621 CLKBUF1_20
*1622 CLKBUF1_50
*1623 CLKBUF1_9
*1624 CLKBUF1_43
*1625 clk_bF_buf5_bF_buf2
*1626 CLKBUF1_10
*1627 DFFPOSX1_251
*1628 DFFPOSX1_11
*1629 DFFPOSX1_91
*1630 DFFPOSX1_267
*1631 clk_bF_buf5_bF_buf1
*1632 CLKBUF1_11
*1633 DFFPOSX1_155
*1634 DFFPOSX1_171
*1635 DFFPOSX1_187
*1636 DFFPOSX1_107
*1637 clk_bF_buf5_bF_buf0
*1638 CLKBUF1_12
*1639 DFFPOSX1_59
*1640 DFFPOSX1_75
*1641 DFFPOSX1_123
*1642 DFFPOSX1_139
*1643 clk_bF_buf6
*1644 CLKBUF1_62
*1645 CLKBUF1_48
*1646 CLKBUF1_14
*1647 DFFPOSX1_239
*1648 DFFPOSX1_208
*1649 clk_bF_buf6_bF_buf2
*1650 CLKBUF1_14
*1651 DFFPOSX1_234
*1652 DFFPOSX1_218
*1653 DFFPOSX1_154
*1654 DFFPOSX1_90
*1655 clk_bF_buf6_bF_buf1
*1656 CLKBUF1_15
*1657 DFFPOSX1_122
*1658 DFFPOSX1_106
*1659 DFFPOSX1_10
*1660 DFFPOSX1_266
*1661 clk_bF_buf6_bF_buf0
*1662 CLKBUF1_16
*1663 DFFPOSX1_186
*1664 DFFPOSX1_138
*1665 DFFPOSX1_170
*1666 DFFPOSX1_250
*1667 clk_bF_buf7
*1668 CLKBUF1_61
*1669 DFFPOSX1_192
*1670 DFFPOSX1_160
*1671 DFFPOSX1_95
*1672 CLKBUF1_27
*1673 clk_bF_buf7_bF_buf2
*1674 CLKBUF1_18
*1675 DFFPOSX1_265
*1676 DFFPOSX1_121
*1677 DFFPOSX1_185
*1678 DFFPOSX1_105
*1679 clk_bF_buf7_bF_buf1
*1680 CLKBUF1_19
*1681 DFFPOSX1_249
*1682 DFFPOSX1_169
*1683 DFFPOSX1_201
*1684 DFFPOSX1_217
*1685 clk_bF_buf7_bF_buf0
*1686 CLKBUF1_20
*1687 DFFPOSX1_233
*1688 DFFPOSX1_153
*1689 DFFPOSX1_57
*1690 DFFPOSX1_25
*1691 clk_bF_buf8
*1692 CLKBUF1_60
*1693 CLKBUF1_41
*1694 DFFPOSX1_256
*1695 DFFPOSX1_224
*1696 DFFPOSX1_240
*1697 clk_bF_buf8_bF_buf2
*1698 CLKBUF1_22
*1699 DFFPOSX1_88
*1700 DFFPOSX1_8
*1701 DFFPOSX1_24
*1702 DFFPOSX1_72
*1703 clk_bF_buf8_bF_buf1
*1704 CLKBUF1_23
*1705 DFFPOSX1_56
*1706 DFFPOSX1_216
*1707 DFFPOSX1_232
*1708 DFFPOSX1_40
*1709 clk_bF_buf8_bF_buf0
*1710 CLKBUF1_24
*1711 DFFPOSX1_152
*1712 DFFPOSX1_200
*1713 DFFPOSX1_168
*1714 DFFPOSX1_184
*1715 clk_bF_buf9
*1716 CLKBUF1_59
*1717 CLKBUF1_24
*1718 CLKBUF1_34
*1719 CLKBUF1_28
*1720 CLKBUF1_35
*1721 clk_bF_buf9_bF_buf2
*1722 CLKBUF1_26
*1723 DFFPOSX1_135
*1724 DFFPOSX1_263
*1725 DFFPOSX1_247
*1726 DFFPOSX1_71
*1727 clk_bF_buf9_bF_buf1
*1728 CLKBUF1_27
*1729 DFFPOSX1_7
*1730 DFFPOSX1_39
*1731 DFFPOSX1_87
*1732 DFFPOSX1_55
*1733 clk_bF_buf9_bF_buf0
*1734 CLKBUF1_28
*1735 DFFPOSX1_199
*1736 DFFPOSX1_231
*1737 DFFPOSX1_215
*1738 DFFPOSX1_23
*1739 clk_bF_buf10
*1740 CLKBUF1_58
*1741 CLKBUF1_8
*1742 DFFPOSX1_191
*1743 DFFPOSX1_79
*1744 CLKBUF1_15
*1745 clk_bF_buf10_bF_buf2
*1746 CLKBUF1_30
*1747 DFFPOSX1_230
*1748 DFFPOSX1_150
*1749 DFFPOSX1_6
*1750 DFFPOSX1_54
*1751 clk_bF_buf10_bF_buf1
*1752 CLKBUF1_31
*1753 DFFPOSX1_134
*1754 DFFPOSX1_166
*1755 DFFPOSX1_70
*1756 DFFPOSX1_246
*1757 clk_bF_buf10_bF_buf0
*1758 CLKBUF1_32
*1759 DFFPOSX1_102
*1760 DFFPOSX1_262
*1761 DFFPOSX1_182
*1762 DFFPOSX1_118
*1763 clk_bF_buf11
*1764 CLKBUF1_57
*1765 DFFPOSX1_223
*1766 CLKBUF1_47
*1767 DFFPOSX1_207
*1768 CLKBUF1_25
*1769 clk_bF_buf11_bF_buf2
*1770 CLKBUF1_34
*1771 DFFPOSX1_37
*1772 DFFPOSX1_165
*1773 DFFPOSX1_5
*1774 DFFPOSX1_69
*1775 clk_bF_buf11_bF_buf1
*1776 CLKBUF1_35
*1777 DFFPOSX1_53
*1778 DFFPOSX1_85
*1779 DFFPOSX1_149
*1780 DFFPOSX1_21
*1781 clk_bF_buf11_bF_buf0
*1782 CLKBUF1_36
*1783 DFFPOSX1_101
*1784 DFFPOSX1_133
*1785 DFFPOSX1_117
*1786 DFFPOSX1_181
*1787 clk_bF_buf12
*1788 CLKBUF1_56
*1789 CLKBUF1_52
*1790 CLKBUF1_10
*1791 CLKBUF1_40
*1792 DFFPOSX1_14
*1793 clk_bF_buf12_bF_buf2
*1794 CLKBUF1_38
*1795 DFFPOSX1_4