*SPICE netlist created from BLIF module ram32_sdram_2split by blif2BSpice
.include /usr/local/share/qflow/tech/osu018/osu018_stdcells.sp
.subckt ram32_sdram_2split vdd gnd en rw clk ras cas datain[0] datain[1] datain[2] datain[3] datain[4] datain[5] datain[6] datain[7] address[0] address[1] address[2] address[3] address[4] dataout[0] dataout[1] dataout[2] dataout[3] dataout[4] dataout[5] dataout[6] dataout[7] 
XCLKBUF1_1 clk_bF$buf13 vdd gnd clk_bF$buf3_bF$buf3 CLKBUF1
XCLKBUF1_2 clk_bF$buf2 vdd gnd clk_bF$buf3_bF$buf2 CLKBUF1
XCLKBUF1_3 clk_bF$buf4 vdd gnd clk_bF$buf3_bF$buf1 CLKBUF1
XCLKBUF1_4 clk_bF$buf15 vdd gnd clk_bF$buf3_bF$buf0 CLKBUF1
XCLKBUF1_5 clk_bF$buf0 vdd gnd clk_bF$buf4_bF$buf3 CLKBUF1
XCLKBUF1_6 clk_bF$buf0 vdd gnd clk_bF$buf4_bF$buf2 CLKBUF1
XCLKBUF1_7 clk_bF$buf14 vdd gnd clk_bF$buf4_bF$buf1 CLKBUF1
XCLKBUF1_8 clk_bF$buf10 vdd gnd clk_bF$buf4_bF$buf0 CLKBUF1
XCLKBUF1_9 clk_bF$buf5 vdd gnd clk_bF$buf5_bF$buf3 CLKBUF1
XCLKBUF1_10 clk_bF$buf12 vdd gnd clk_bF$buf5_bF$buf2 CLKBUF1
XCLKBUF1_11 clk_bF$buf1 vdd gnd clk_bF$buf5_bF$buf1 CLKBUF1
XCLKBUF1_12 clk_bF$buf14 vdd gnd clk_bF$buf5_bF$buf0 CLKBUF1
XCLKBUF1_13 clk_bF$buf2 vdd gnd clk_bF$buf6_bF$buf3 CLKBUF1
XCLKBUF1_14 clk_bF$buf6 vdd gnd clk_bF$buf6_bF$buf2 CLKBUF1
XCLKBUF1_15 clk_bF$buf10 vdd gnd clk_bF$buf6_bF$buf1 CLKBUF1
XCLKBUF1_16 clk_bF$buf13 vdd gnd clk_bF$buf6_bF$buf0 CLKBUF1
XCLKBUF1_17 clk_bF$buf14 vdd gnd clk_bF$buf7_bF$buf3 CLKBUF1
XCLKBUF1_18 clk_bF$buf0 vdd gnd clk_bF$buf7_bF$buf2 CLKBUF1
XCLKBUF1_19 clk_bF$buf2 vdd gnd clk_bF$buf7_bF$buf1 CLKBUF1
XCLKBUF1_20 clk_bF$buf5 vdd gnd clk_bF$buf7_bF$buf0 CLKBUF1
XCLKBUF1_21 clk_bF$buf15 vdd gnd clk_bF$buf8_bF$buf3 CLKBUF1
XCLKBUF1_22 clk_bF$buf1 vdd gnd clk_bF$buf8_bF$buf2 CLKBUF1
XCLKBUF1_23 clk_bF$buf1 vdd gnd clk_bF$buf8_bF$buf1 CLKBUF1
XCLKBUF1_24 clk_bF$buf9 vdd gnd clk_bF$buf8_bF$buf0 CLKBUF1
XCLKBUF1_25 clk_bF$buf11 vdd gnd clk_bF$buf9_bF$buf3 CLKBUF1
XCLKBUF1_26 clk_bF$buf0 vdd gnd clk_bF$buf9_bF$buf2 CLKBUF1
XCLKBUF1_27 clk_bF$buf7 vdd gnd clk_bF$buf9_bF$buf1 CLKBUF1
XCLKBUF1_28 clk_bF$buf9 vdd gnd clk_bF$buf9_bF$buf0 CLKBUF1
XCLKBUF1_29 clk_bF$buf3 vdd gnd clk_bF$buf10_bF$buf3 CLKBUF1
XCLKBUF1_30 clk_bF$buf3 vdd gnd clk_bF$buf10_bF$buf2 CLKBUF1
XCLKBUF1_31 clk_bF$buf0 vdd gnd clk_bF$buf10_bF$buf1 CLKBUF1
XCLKBUF1_32 clk_bF$buf0 vdd gnd clk_bF$buf10_bF$buf0 CLKBUF1
XCLKBUF1_33 clk_bF$buf1 vdd gnd clk_bF$buf11_bF$buf3 CLKBUF1
XCLKBUF1_34 clk_bF$buf9 vdd gnd clk_bF$buf11_bF$buf2 CLKBUF1
XCLKBUF1_35 clk_bF$buf9 vdd gnd clk_bF$buf11_bF$buf1 CLKBUF1
XCLKBUF1_36 clk_bF$buf13 vdd gnd clk_bF$buf11_bF$buf0 CLKBUF1
XCLKBUF1_37 clk_bF$buf2 vdd gnd clk_bF$buf12_bF$buf3 CLKBUF1
XCLKBUF1_38 clk_bF$buf2 vdd gnd clk_bF$buf12_bF$buf2 CLKBUF1
XCLKBUF1_39 clk_bF$buf2 vdd gnd clk_bF$buf12_bF$buf1 CLKBUF1
XCLKBUF1_40 clk_bF$buf12 vdd gnd clk_bF$buf12_bF$buf0 CLKBUF1
XCLKBUF1_41 clk_bF$buf8 vdd gnd clk_bF$buf13_bF$buf3 CLKBUF1
XCLKBUF1_42 clk_bF$buf0 vdd gnd clk_bF$buf13_bF$buf2 CLKBUF1
XCLKBUF1_43 clk_bF$buf5 vdd gnd clk_bF$buf13_bF$buf1 CLKBUF1
XCLKBUF1_44 clk_bF$buf1 vdd gnd clk_bF$buf13_bF$buf0 CLKBUF1
XCLKBUF1_45 clk_bF$buf2 vdd gnd clk_bF$buf14_bF$buf3 CLKBUF1
XCLKBUF1_46 clk_bF$buf13 vdd gnd clk_bF$buf14_bF$buf2 CLKBUF1
XCLKBUF1_47 clk_bF$buf11 vdd gnd clk_bF$buf14_bF$buf1 CLKBUF1
XCLKBUF1_48 clk_bF$buf6 vdd gnd clk_bF$buf14_bF$buf0 CLKBUF1
XCLKBUF1_49 clk_bF$buf2 vdd gnd clk_bF$buf15_bF$buf3 CLKBUF1
XCLKBUF1_50 clk_bF$buf5 vdd gnd clk_bF$buf15_bF$buf2 CLKBUF1
XCLKBUF1_51 clk_bF$buf1 vdd gnd clk_bF$buf15_bF$buf1 CLKBUF1
XCLKBUF1_52 clk_bF$buf12 vdd gnd clk_bF$buf15_bF$buf0 CLKBUF1
XBUFX4_1 vdd gnd _629_ _629__bF$buf4 BUFX4
XBUFX4_2 vdd gnd _629_ _629__bF$buf3 BUFX4
XBUFX4_3 vdd gnd _629_ _629__bF$buf2 BUFX4
XBUFX4_4 vdd gnd _629_ _629__bF$buf1 BUFX4
XBUFX4_5 vdd gnd _629_ _629__bF$buf0 BUFX4
XCLKBUF1_53 clk vdd gnd clk_bF$buf15 CLKBUF1
XCLKBUF1_54 clk vdd gnd clk_bF$buf14 CLKBUF1
XCLKBUF1_55 clk vdd gnd clk_bF$buf13 CLKBUF1
XCLKBUF1_56 clk vdd gnd clk_bF$buf12 CLKBUF1
XCLKBUF1_57 clk vdd gnd clk_bF$buf11 CLKBUF1
XCLKBUF1_58 clk vdd gnd clk_bF$buf10 CLKBUF1
XCLKBUF1_59 clk vdd gnd clk_bF$buf9 CLKBUF1
XCLKBUF1_60 clk vdd gnd clk_bF$buf8 CLKBUF1
XCLKBUF1_61 clk vdd gnd clk_bF$buf7 CLKBUF1
XCLKBUF1_62 clk vdd gnd clk_bF$buf6 CLKBUF1
XCLKBUF1_63 clk vdd gnd clk_bF$buf5 CLKBUF1
XCLKBUF1_64 clk vdd gnd clk_bF$buf4 CLKBUF1
XCLKBUF1_65 clk vdd gnd clk_bF$buf3 CLKBUF1
XCLKBUF1_66 clk vdd gnd clk_bF$buf2 CLKBUF1
XCLKBUF1_67 clk vdd gnd clk_bF$buf1 CLKBUF1
XCLKBUF1_68 clk vdd gnd clk_bF$buf0 CLKBUF1
XBUFX4_6 vdd gnd _623_ _623__bF$buf4 BUFX4
XBUFX4_7 vdd gnd _623_ _623__bF$buf3 BUFX4
XBUFX4_8 vdd gnd _623_ _623__bF$buf2 BUFX4
XBUFX4_9 vdd gnd _623_ _623__bF$buf1 BUFX4
XBUFX4_10 vdd gnd _623_ _623__bF$buf0 BUFX4
XBUFX4_11 vdd gnd column_address[1] column_address[1_bF$buf7] BUFX4
XBUFX4_12 vdd gnd column_address[1] column_address[1_bF$buf6] BUFX4
XBUFX4_13 vdd gnd column_address[1] column_address[1_bF$buf5] BUFX4
XBUFX4_14 vdd gnd column_address[1] column_address[1_bF$buf4] BUFX4
XBUFX4_15 vdd gnd column_address[1] column_address[1_bF$buf3] BUFX4
XBUFX4_16 vdd gnd column_address[1] column_address[1_bF$buf2] BUFX4
XBUFX4_17 vdd gnd column_address[1] column_address[1_bF$buf1] BUFX4
XBUFX4_18 vdd gnd column_address[1] column_address[1_bF$buf0] BUFX4
XBUFX4_19 vdd gnd _631_ _631__bF$buf4 BUFX4
XBUFX4_20 vdd gnd _631_ _631__bF$buf3 BUFX4
XBUFX4_21 vdd gnd _631_ _631__bF$buf2 BUFX4
XBUFX4_22 vdd gnd _631_ _631__bF$buf1 BUFX4
XBUFX4_23 vdd gnd _631_ _631__bF$buf0 BUFX4
XBUFX4_24 vdd gnd _625_ _625__bF$buf4 BUFX4
XBUFX4_25 vdd gnd _625_ _625__bF$buf3 BUFX4
XBUFX4_26 vdd gnd _625_ _625__bF$buf2 BUFX4
XBUFX4_27 vdd gnd _625_ _625__bF$buf1 BUFX4
XBUFX4_28 vdd gnd _625_ _625__bF$buf0 BUFX4
XBUFX4_29 vdd gnd column_address[0] column_address[0_bF$buf10] BUFX4
XBUFX4_30 vdd gnd column_address[0] column_address[0_bF$buf9] BUFX4
XBUFX4_31 vdd gnd column_address[0] column_address[0_bF$buf8] BUFX4
XBUFX4_32 vdd gnd column_address[0] column_address[0_bF$buf7] BUFX4
XBUFX4_33 vdd gnd column_address[0] column_address[0_bF$buf6] BUFX4
XBUFX4_34 vdd gnd column_address[0] column_address[0_bF$buf5] BUFX4
XBUFX4_35 vdd gnd column_address[0] column_address[0_bF$buf4] BUFX4
XBUFX4_36 vdd gnd column_address[0] column_address[0_bF$buf3] BUFX4
XBUFX4_37 vdd gnd column_address[0] column_address[0_bF$buf2] BUFX4
XBUFX4_38 vdd gnd column_address[0] column_address[0_bF$buf1] BUFX4
XBUFX4_39 vdd gnd column_address[0] column_address[0_bF$buf0] BUFX4
XBUFX4_40 vdd gnd _633_ _633__bF$buf4 BUFX4
XBUFX4_41 vdd gnd _633_ _633__bF$buf3 BUFX4
XBUFX4_42 vdd gnd _633_ _633__bF$buf2 BUFX4
XBUFX4_43 vdd gnd _633_ _633__bF$buf1 BUFX4
XBUFX4_44 vdd gnd _633_ _633__bF$buf0 BUFX4
XBUFX4_45 vdd gnd _627_ _627__bF$buf4 BUFX4
XBUFX4_46 vdd gnd _627_ _627__bF$buf3 BUFX4
XBUFX4_47 vdd gnd _627_ _627__bF$buf2 BUFX4
XBUFX4_48 vdd gnd _627_ _627__bF$buf1 BUFX4
XBUFX4_49 vdd gnd _627_ _627__bF$buf0 BUFX4
XBUFX4_50 vdd gnd _621_ _621__bF$buf4 BUFX4
XBUFX4_51 vdd gnd _621_ _621__bF$buf3 BUFX4
XBUFX4_52 vdd gnd _621_ _621__bF$buf2 BUFX4
XBUFX4_53 vdd gnd _621_ _621__bF$buf1 BUFX4
XBUFX4_54 vdd gnd _621_ _621__bF$buf0 BUFX4
XBUFX4_55 vdd gnd _609_ _609__bF$buf4 BUFX4
XBUFX4_56 vdd gnd _609_ _609__bF$buf3 BUFX4
XBUFX4_57 vdd gnd _609_ _609__bF$buf2 BUFX4
XBUFX4_58 vdd gnd _609_ _609__bF$buf1 BUFX4
XBUFX4_59 vdd gnd _609_ _609__bF$buf0 BUFX4
XNAND3X1_1 _694_ vdd gnd _614_ _674_ _695_ NAND3X1
XNAND2X1_1 vdd _696_ gnd Mem[20][0] _695_ NAND2X1
XOAI21X1_1 gnd vdd _609__bF$buf4 _695_ _48_ _696_ OAI21X1
XNAND2X1_2 vdd _697_ gnd Mem[20][1] _695_ NAND2X1
XOAI21X1_2 gnd vdd _621__bF$buf3 _695_ _49_ _697_ OAI21X1
XNAND2X1_3 vdd _698_ gnd Mem[20][2] _695_ NAND2X1
XOAI21X1_3 gnd vdd _623__bF$buf1 _695_ _50_ _698_ OAI21X1
XNAND2X1_4 vdd _699_ gnd Mem[20][3] _695_ NAND2X1
XOAI21X1_4 gnd vdd _625__bF$buf0 _695_ _51_ _699_ OAI21X1
XNAND2X1_5 vdd _700_ gnd Mem[20][4] _695_ NAND2X1
XOAI21X1_5 gnd vdd _627__bF$buf2 _695_ _52_ _700_ OAI21X1
XNAND2X1_6 vdd _701_ gnd Mem[20][5] _695_ NAND2X1
XOAI21X1_6 gnd vdd _629__bF$buf2 _695_ _53_ _701_ OAI21X1
XNAND2X1_7 vdd _702_ gnd Mem[20][6] _695_ NAND2X1
XOAI21X1_7 gnd vdd _631__bF$buf1 _695_ _54_ _702_ OAI21X1
XNAND2X1_8 vdd _703_ gnd Mem[20][7] _695_ NAND2X1
XOAI21X1_8 gnd vdd _633__bF$buf0 _695_ _55_ _703_ OAI21X1
XNAND2X1_9 vdd _704_ gnd column_address[0_bF$buf10] column_address[1_bF$buf7] NAND2X1
XINVX2_1 vdd gnd _705_ _704_ INVX2
XNAND3X1_2 _705_ vdd gnd _614_ _664_ _706_ NAND3X1
XNAND2X1_10 vdd _707_ gnd Mem[19][0] _706_ NAND2X1
XOAI21X1_9 gnd vdd _609__bF$buf4 _706_ _56_ _707_ OAI21X1
XNAND2X1_11 vdd _708_ gnd Mem[19][1] _706_ NAND2X1
XOAI21X1_10 gnd vdd _621__bF$buf2 _706_ _57_ _708_ OAI21X1
XNAND2X1_12 vdd _709_ gnd Mem[19][2] _706_ NAND2X1
XOAI21X1_11 gnd vdd _623__bF$buf0 _706_ _58_ _709_ OAI21X1
XNAND2X1_13 vdd _710_ gnd Mem[19][3] _706_ NAND2X1
XOAI21X1_12 gnd vdd _625__bF$buf3 _706_ _59_ _710_ OAI21X1
XNAND2X1_14 vdd _711_ gnd Mem[19][4] _706_ NAND2X1
XOAI21X1_13 gnd vdd _627__bF$buf3 _706_ _60_ _711_ OAI21X1
XNAND2X1_15 vdd _712_ gnd Mem[19][5] _706_ NAND2X1
XOAI21X1_14 gnd vdd _629__bF$buf3 _706_ _61_ _712_ OAI21X1
XNAND2X1_16 vdd _713_ gnd Mem[19][6] _706_ NAND2X1
XOAI21X1_15 gnd vdd _631__bF$buf1 _706_ _62_ _713_ OAI21X1
XNAND2X1_17 vdd _714_ gnd Mem[19][7] _706_ NAND2X1
XOAI21X1_16 gnd vdd _633__bF$buf4 _706_ _63_ _714_ OAI21X1
XINVX1_1 Mem[4][0] _715_ vdd gnd INVX1
XNAND2X1_18 vdd _716_ gnd row_address[0] _635_ NAND2X1
XINVX8_1 vdd gnd _716_ _717_ INVX8
XINVX2_2 vdd gnd _718_ _614_ INVX2
XNOR2X1_1 vdd _718_ gnd _719_ _693_ NOR2X1
XNAND2X1_19 vdd _720_ gnd _717_ _719_ NAND2X1
XMUX2X1_1 _720_ vdd gnd _64_ _715_ _609__bF$buf2 MUX2X1
XINVX1_2 Mem[4][1] _721_ vdd gnd INVX1
XMUX2X1_2 _720_ vdd gnd _65_ _721_ _621__bF$buf1 MUX2X1
XINVX1_3 Mem[4][2] _722_ vdd gnd INVX1
XMUX2X1_3 _720_ vdd gnd _66_ _722_ _623__bF$buf4 MUX2X1
XINVX1_4 Mem[4][3] _723_ vdd gnd INVX1
XMUX2X1_4 _720_ vdd gnd _67_ _723_ _625__bF$buf1 MUX2X1
XINVX1_5 Mem[4][4] _724_ vdd gnd INVX1
XMUX2X1_5 _720_ vdd gnd _68_ _724_ _627__bF$buf0 MUX2X1
XINVX1_6 Mem[4][5] _725_ vdd gnd INVX1
XMUX2X1_6 _720_ vdd gnd _69_ _725_ _629__bF$buf0 MUX2X1
XINVX1_7 Mem[4][6] _726_ vdd gnd INVX1
XMUX2X1_7 _720_ vdd gnd _70_ _726_ _631__bF$buf3 MUX2X1
XINVX1_8 Mem[4][7] _727_ vdd gnd INVX1
XMUX2X1_8 _720_ vdd gnd _71_ _727_ _633__bF$buf3 MUX2X1
XNAND3X1_3 _694_ vdd gnd _614_ _664_ _728_ NAND3X1
XNAND2X1_20 vdd _729_ gnd Mem[16][0] _728_ NAND2X1
XOAI21X1_17 gnd vdd _609__bF$buf0 _728_ _72_ _729_ OAI21X1
XNAND2X1_21 vdd _730_ gnd Mem[16][1] _728_ NAND2X1
XOAI21X1_18 gnd vdd _621__bF$buf2 _728_ _73_ _730_ OAI21X1
XNAND2X1_22 vdd _731_ gnd Mem[16][2] _728_ NAND2X1
XOAI21X1_19 gnd vdd _623__bF$buf0 _728_ _74_ _731_ OAI21X1
XNAND2X1_23 vdd _732_ gnd Mem[16][3] _728_ NAND2X1
XOAI21X1_20 gnd vdd _625__bF$buf3 _728_ _75_ _732_ OAI21X1
XNAND2X1_24 vdd _733_ gnd Mem[16][4] _728_ NAND2X1
XOAI21X1_21 gnd vdd _627__bF$buf3 _728_ _76_ _733_ OAI21X1
XNAND2X1_25 vdd _734_ gnd Mem[16][5] _728_ NAND2X1
XOAI21X1_22 gnd vdd _629__bF$buf3 _728_ _77_ _734_ OAI21X1
XNAND2X1_26 vdd _735_ gnd Mem[16][6] _728_ NAND2X1
XOAI21X1_23 gnd vdd _631__bF$buf0 _728_ _78_ _735_ OAI21X1
XNAND2X1_27 vdd _736_ gnd Mem[16][7] _728_ NAND2X1
XOAI21X1_24 gnd vdd _633__bF$buf1 _728_ _79_ _736_ OAI21X1
XAND2X2_1 vdd gnd _639_ _674_ _737_ AND2X2
XNOR2X1_2 vdd _737_ gnd _738_ Mem[21][0] NOR2X1
XAOI21X1_1 gnd vdd _609__bF$buf4 _737_ _80_ _738_ AOI21X1
XNOR2X1_3 vdd _737_ gnd _739_ Mem[21][1] NOR2X1
XAOI21X1_2 gnd vdd _621__bF$buf0 _737_ _81_ _739_ AOI21X1
XNOR2X1_4 vdd _737_ gnd _740_ Mem[21][2] NOR2X1
XAOI21X1_3 gnd vdd _623__bF$buf1 _737_ _82_ _740_ AOI21X1
XNOR2X1_5 vdd _737_ gnd _741_ Mem[21][3] NOR2X1
XAOI21X1_4 gnd vdd _625__bF$buf0 _737_ _83_ _741_ AOI21X1
XNOR2X1_6 vdd _737_ gnd _742_ Mem[21][4] NOR2X1
XAOI21X1_5 gnd vdd _627__bF$buf2 _737_ _84_ _742_ AOI21X1
XNOR2X1_7 vdd _737_ gnd _743_ Mem[21][5] NOR2X1
XAOI21X1_6 gnd vdd _629__bF$buf2 _737_ _85_ _743_ AOI21X1
XNOR2X1_8 vdd _737_ gnd _744_ Mem[21][6] NOR2X1
XAOI21X1_7 gnd vdd _631__bF$buf1 _737_ _86_ _744_ AOI21X1
XNOR2X1_9 vdd _737_ gnd _745_ Mem[21][7] NOR2X1
XAOI21X1_8 gnd vdd _633__bF$buf0 _737_ _87_ _745_ AOI21X1
XINVX1_9 Mem[8][0] _746_ vdd gnd INVX1
XNAND2X1_28 vdd _747_ gnd _694_ _618_ NAND2X1
XMUX2X1_9 _747_ vdd gnd _88_ _746_ _609__bF$buf0 MUX2X1
XINVX1_10 Mem[8][1] _748_ vdd gnd INVX1
XMUX2X1_10 _747_ vdd gnd _89_ _748_ _621__bF$buf2 MUX2X1
XINVX1_11 Mem[8][2] _749_ vdd gnd INVX1
XMUX2X1_11 _747_ vdd gnd _90_ _749_ _623__bF$buf3 MUX2X1
XINVX1_12 Mem[8][3] _750_ vdd gnd INVX1
XMUX2X1_12 _747_ vdd gnd _91_ _750_ _625__bF$buf4 MUX2X1
XINVX1_13 Mem[8][4] _751_ vdd gnd INVX1
XMUX2X1_13 _747_ vdd gnd _92_ _751_ _627__bF$buf0 MUX2X1
XINVX1_14 Mem[8][5] _752_ vdd gnd INVX1
XMUX2X1_14 _747_ vdd gnd _93_ _752_ _629__bF$buf3 MUX2X1
XINVX1_15 Mem[8][6] _753_ vdd gnd INVX1
XMUX2X1_15 _747_ vdd gnd _94_ _753_ _631__bF$buf2 MUX2X1
XINVX1_16 Mem[8][7] _754_ vdd gnd INVX1
XMUX2X1_16 _747_ vdd gnd _95_ _754_ _633__bF$buf0 MUX2X1
XNOR2X1_10 vdd _616_ gnd _755_ _634_ NOR2X1
XNOR2X1_11 vdd _718_ gnd _756_ _704_ NOR2X1
XNAND2X1_29 vdd _757_ gnd _755_ _756_ NAND2X1
XNAND2X1_30 vdd _758_ gnd Mem[15][0] _757_ NAND2X1
XOAI21X1_25 gnd vdd _609__bF$buf1 _757_ _99_ _758_ OAI21X1
XNAND2X1_31 vdd _759_ gnd Mem[15][1] _757_ NAND2X1
XOAI21X1_26 gnd vdd _621__bF$buf4 _757_ _100_ _759_ OAI21X1
XNAND2X1_32 vdd _760_ gnd Mem[15][2] _757_ NAND2X1
XOAI21X1_27 gnd vdd _623__bF$buf3 _757_ _101_ _760_ OAI21X1
XNAND2X1_33 vdd _761_ gnd Mem[15][3] _757_ NAND2X1
XOAI21X1_28 gnd vdd _625__bF$buf1 _757_ _102_ _761_ OAI21X1
XNAND2X1_34 vdd _762_ gnd Mem[15][4] _757_ NAND2X1
XOAI21X1_29 gnd vdd _627__bF$buf4 _757_ _103_ _762_ OAI21X1
XNAND2X1_35 vdd _763_ gnd Mem[15][5] _757_ NAND2X1
XOAI21X1_30 gnd vdd _629__bF$buf1 _757_ _104_ _763_ OAI21X1
XNAND2X1_36 vdd _764_ gnd Mem[15][6] _757_ NAND2X1
XOAI21X1_31 gnd vdd _631__bF$buf0 _757_ _105_ _764_ OAI21X1
XNAND2X1_37 vdd _765_ gnd Mem[15][7] _757_ NAND2X1
XOAI21X1_32 gnd vdd _633__bF$buf3 _757_ _106_ _765_ OAI21X1
XNAND3X1_4 _614_ vdd gnd _705_ _637_ _766_ NAND3X1
XNAND2X1_38 vdd _767_ gnd Mem[3][0] _766_ NAND2X1
XOAI21X1_33 gnd vdd _609__bF$buf1 _766_ _107_ _767_ OAI21X1
XNAND2X1_39 vdd _768_ gnd Mem[3][1] _766_ NAND2X1
XOAI21X1_34 gnd vdd _621__bF$buf4 _766_ _108_ _768_ OAI21X1
XNAND2X1_40 vdd _769_ gnd Mem[3][2] _766_ NAND2X1
XOAI21X1_35 gnd vdd _623__bF$buf4 _766_ _109_ _769_ OAI21X1
XNAND2X1_41 vdd _770_ gnd Mem[3][3] _766_ NAND2X1
XOAI21X1_36 gnd vdd _625__bF$buf4 _766_ _110_ _770_ OAI21X1
XNAND2X1_42 vdd _771_ gnd Mem[3][4] _766_ NAND2X1
XOAI21X1_37 gnd vdd _627__bF$buf3 _766_ _111_ _771_ OAI21X1
XNAND2X1_43 vdd _772_ gnd Mem[3][5] _766_ NAND2X1
XOAI21X1_38 gnd vdd _629__bF$buf0 _766_ _112_ _772_ OAI21X1
XNAND2X1_44 vdd _773_ gnd Mem[3][6] _766_ NAND2X1
XOAI21X1_39 gnd vdd _631__bF$buf3 _766_ _113_ _773_ OAI21X1
XNAND2X1_45 vdd _774_ gnd Mem[3][7] _766_ NAND2X1
XOAI21X1_40 gnd vdd _633__bF$buf1 _766_ _114_ _774_ OAI21X1
XNAND3X1_5 _661_ vdd gnd _614_ _755_ _775_ NAND3X1
XNAND2X1_46 vdd _776_ gnd Mem[14][0] _775_ NAND2X1
XOAI21X1_41 gnd vdd _609__bF$buf1 _775_ _115_ _776_ OAI21X1
XNAND2X1_47 vdd _777_ gnd Mem[14][1] _775_ NAND2X1
XOAI21X1_42 gnd vdd _621__bF$buf4 _775_ _116_ _777_ OAI21X1
XNAND2X1_48 vdd _778_ gnd Mem[14][2] _775_ NAND2X1
XOAI21X1_43 gnd vdd _623__bF$buf4 _775_ _117_ _778_ OAI21X1
XNAND2X1_49 vdd _779_ gnd Mem[14][3] _775_ NAND2X1
XOAI21X1_44 gnd vdd _625__bF$buf3 _775_ _118_ _779_ OAI21X1
XNAND2X1_50 vdd _780_ gnd Mem[14][4] _775_ NAND2X1
XOAI21X1_45 gnd vdd _627__bF$buf4 _775_ _119_ _780_ OAI21X1
XNAND2X1_51 vdd _781_ gnd Mem[14][5] _775_ NAND2X1
XOAI21X1_46 gnd vdd _629__bF$buf1 _775_ _120_ _781_ OAI21X1
XNAND2X1_52 vdd _782_ gnd Mem[14][6] _775_ NAND2X1
XOAI21X1_47 gnd vdd _631__bF$buf0 _775_ _121_ _782_ OAI21X1
XNAND2X1_53 vdd _783_ gnd Mem[14][7] _775_ NAND2X1
XOAI21X1_48 gnd vdd _633__bF$buf1 _775_ _122_ _783_ OAI21X1
XAND2X2_2 vdd gnd _639_ _755_ _784_ AND2X2
XNOR2X1_12 vdd _784_ gnd _785_ Mem[13][0] NOR2X1
XAOI21X1_9 gnd vdd _609__bF$buf1 _784_ _123_ _785_ AOI21X1
XNOR2X1_13 vdd _784_ gnd _786_ Mem[13][1] NOR2X1
XAOI21X1_10 gnd vdd _621__bF$buf1 _784_ _124_ _786_ AOI21X1
XNOR2X1_14 vdd _784_ gnd _787_ Mem[13][2] NOR2X1
XAOI21X1_11 gnd vdd _623__bF$buf3 _784_ _125_ _787_ AOI21X1
XNOR2X1_15 vdd _784_ gnd _788_ Mem[13][3] NOR2X1
XAOI21X1_12 gnd vdd _625__bF$buf3 _784_ _126_ _788_ AOI21X1
XNOR2X1_16 vdd _784_ gnd _789_ Mem[13][4] NOR2X1
XAOI21X1_13 gnd vdd _627__bF$buf4 _784_ _127_ _789_ AOI21X1
XNOR2X1_17 vdd _784_ gnd _790_ Mem[13][5] NOR2X1
XAOI21X1_14 gnd vdd _629__bF$buf1 _784_ _128_ _790_ AOI21X1
XNOR2X1_18 vdd _784_ gnd _791_ Mem[13][6] NOR2X1
XAOI21X1_15 gnd vdd _631__bF$buf3 _784_ _129_ _791_ AOI21X1
XNOR2X1_19 vdd _784_ gnd _792_ Mem[13][7] NOR2X1
XAOI21X1_16 gnd vdd _633__bF$buf3 _784_ _130_ _792_ AOI21X1
XNAND2X1_54 vdd _793_ gnd _755_ _719_ NAND2X1
XNAND2X1_55 vdd _794_ gnd Mem[12][0] _793_ NAND2X1
XOAI21X1_49 gnd vdd _609__bF$buf1 _793_ _131_ _794_ OAI21X1
XNAND2X1_56 vdd _795_ gnd Mem[12][1] _793_ NAND2X1
XOAI21X1_50 gnd vdd _621__bF$buf4 _793_ _132_ _795_ OAI21X1
XNAND2X1_57 vdd _796_ gnd Mem[12][2] _793_ NAND2X1
XOAI21X1_51 gnd vdd _623__bF$buf3 _793_ _133_ _796_ OAI21X1
XNAND2X1_58 vdd _797_ gnd Mem[12][3] _793_ NAND2X1
XOAI21X1_52 gnd vdd _625__bF$buf3 _793_ _134_ _797_ OAI21X1
XNAND2X1_59 vdd _798_ gnd Mem[12][4] _793_ NAND2X1
XOAI21X1_53 gnd vdd _627__bF$buf4 _793_ _135_ _798_ OAI21X1
XNAND2X1_60 vdd _799_ gnd Mem[12][5] _793_ NAND2X1
XOAI21X1_54 gnd vdd _629__bF$buf1 _793_ _136_ _799_ OAI21X1
XNAND2X1_61 vdd _800_ gnd Mem[12][6] _793_ NAND2X1
XOAI21X1_55 gnd vdd _631__bF$buf3 _793_ _137_ _800_ OAI21X1
XNAND2X1_62 vdd _801_ gnd Mem[12][7] _793_ NAND2X1
XOAI21X1_56 gnd vdd _633__bF$buf1 _793_ _138_ _801_ OAI21X1
XNAND2X1_63 vdd _802_ gnd _705_ _618_ NAND2X1
XNAND2X1_64 vdd _803_ gnd Mem[11][0] _802_ NAND2X1
XOAI21X1_57 gnd vdd _609__bF$buf0 _802_ _139_ _803_ OAI21X1
XNAND2X1_65 vdd _804_ gnd Mem[11][1] _802_ NAND2X1
XOAI21X1_58 gnd vdd _621__bF$buf2 _802_ _140_ _804_ OAI21X1
XNAND2X1_66 vdd _805_ gnd Mem[11][2] _802_ NAND2X1
XOAI21X1_59 gnd vdd _623__bF$buf3 _802_ _141_ _805_ OAI21X1
XNAND2X1_67 vdd _806_ gnd Mem[11][3] _802_ NAND2X1
XOAI21X1_60 gnd vdd _625__bF$buf4 _802_ _142_ _806_ OAI21X1
XNAND2X1_68 vdd _807_ gnd Mem[11][4] _802_ NAND2X1
XOAI21X1_61 gnd vdd _627__bF$buf2 _802_ _143_ _807_ OAI21X1
XNAND2X1_69 vdd _808_ gnd Mem[11][5] _802_ NAND2X1
XOAI21X1_62 gnd vdd _629__bF$buf3 _802_ _144_ _808_ OAI21X1
XNAND2X1_70 vdd _809_ gnd Mem[11][6] _802_ NAND2X1
XOAI21X1_63 gnd vdd _631__bF$buf2 _802_ _145_ _809_ OAI21X1
XNAND2X1_71 vdd _810_ gnd Mem[11][7] _802_ NAND2X1
XOAI21X1_64 gnd vdd _633__bF$buf4 _802_ _146_ _810_ OAI21X1
XINVX8_2 vdd gnd _650_ _811_ INVX8
XNAND3X1_6 _705_ vdd gnd _614_ _811_ _812_ NAND3X1
XNAND2X1_72 vdd _813_ gnd Mem[31][0] _812_ NAND2X1
XOAI21X1_65 gnd vdd _609__bF$buf3 _812_ _147_ _813_ OAI21X1
XNAND2X1_73 vdd _814_ gnd Mem[31][1] _812_ NAND2X1
XOAI21X1_66 gnd vdd _621__bF$buf0 _812_ _148_ _814_ OAI21X1
XNAND2X1_74 vdd _815_ gnd Mem[31][2] _812_ NAND2X1
XOAI21X1_67 gnd vdd _623__bF$buf1 _812_ _149_ _815_ OAI21X1
XNAND2X1_75 vdd _816_ gnd Mem[31][3] _812_ NAND2X1
XOAI21X1_68 gnd vdd _625__bF$buf2 _812_ _150_ _816_ OAI21X1
XNAND2X1_76 vdd _817_ gnd Mem[31][4] _812_ NAND2X1
XOAI21X1_69 gnd vdd _627__bF$buf2 _812_ _151_ _817_ OAI21X1
XNAND2X1_77 vdd _818_ gnd Mem[31][5] _812_ NAND2X1
XOAI21X1_70 gnd vdd _629__bF$buf4 _812_ _152_ _818_ OAI21X1
XNAND2X1_78 vdd _819_ gnd Mem[31][6] _812_ NAND2X1
XOAI21X1_71 gnd vdd _631__bF$buf4 _812_ _153_ _819_ OAI21X1
XNAND2X1_79 vdd _820_ gnd Mem[31][7] _812_ NAND2X1
XOAI21X1_72 gnd vdd _633__bF$buf2 _812_ _154_ _820_ OAI21X1
XINVX1_17 Mem[7][0] _821_ vdd gnd INVX1
XNAND2X1_80 vdd _822_ gnd _717_ _756_ NAND2X1
XMUX2X1_17 _822_ vdd gnd _155_ _821_ _609__bF$buf2 MUX2X1
XINVX1_18 Mem[7][1] _823_ vdd gnd INVX1
XMUX2X1_18 _822_ vdd gnd _156_ _823_ _621__bF$buf1 MUX2X1
XINVX1_19 Mem[7][2] _824_ vdd gnd INVX1
XMUX2X1_19 _822_ vdd gnd _157_ _824_ _623__bF$buf4 MUX2X1
XINVX1_20 Mem[7][3] _825_ vdd gnd INVX1
XMUX2X1_20 _822_ vdd gnd _158_ _825_ _625__bF$buf1 MUX2X1
XINVX1_21 Mem[7][4] _826_ vdd gnd INVX1
XMUX2X1_21 _822_ vdd gnd _159_ _826_ _627__bF$buf0 MUX2X1
XINVX1_22 Mem[7][5] _827_ vdd gnd INVX1
XMUX2X1_22 _822_ vdd gnd _160_ _827_ _629__bF$buf1 MUX2X1
XINVX1_23 Mem[7][6] _828_ vdd gnd INVX1
XMUX2X1_23 _822_ vdd gnd _161_ _828_ _631__bF$buf3 MUX2X1
XINVX1_24 Mem[7][7] _829_ vdd gnd INVX1
XMUX2X1_24 _822_ vdd gnd _162_ _829_ _633__bF$buf3 MUX2X1
XINVX1_25 Mem[10][0] _830_ vdd gnd INVX1
XNAND2X1_81 vdd _831_ gnd _661_ _618_ NAND2X1
XMUX2X1_25 _831_ vdd gnd _163_ _830_ _609__bF$buf0 MUX2X1
XINVX1_26 Mem[10][1] _832_ vdd gnd INVX1
XMUX2X1_26 _831_ vdd gnd _164_ _832_ _621__bF$buf0 MUX2X1
XINVX1_27 Mem[10][2] _833_ vdd gnd INVX1
XMUX2X1_27 _831_ vdd gnd _165_ _833_ _623__bF$buf3 MUX2X1
XINVX1_28 Mem[10][3] _834_ vdd gnd INVX1
XMUX2X1_28 _831_ vdd gnd _166_ _834_ _625__bF$buf1 MUX2X1
XINVX1_29 Mem[10][4] _835_ vdd gnd INVX1
XMUX2X1_29 _831_ vdd gnd _167_ _835_ _627__bF$buf0 MUX2X1
XINVX1_30 Mem[10][5] _836_ vdd gnd INVX1
XMUX2X1_30 _831_ vdd gnd _168_ _836_ _629__bF$buf3 MUX2X1
XINVX1_31 Mem[10][6] _837_ vdd gnd INVX1
XMUX2X1_31 _831_ vdd gnd _169_ _837_ _631__bF$buf2 MUX2X1
XINVX1_32 Mem[10][7] _838_ vdd gnd INVX1
XMUX2X1_32 _831_ vdd gnd _170_ _838_ _633__bF$buf2 MUX2X1
XNOR2X1_20 vdd _718_ gnd _839_ _636_ NOR2X1
XNAND2X1_82 vdd _840_ gnd _694_ _839_ NAND2X1
XNAND2X1_83 vdd _841_ gnd Mem[0][0] _840_ NAND2X1
XOAI21X1_73 gnd vdd _609__bF$buf2 _840_ _171_ _841_ OAI21X1
XNAND2X1_84 vdd _842_ gnd Mem[0][1] _840_ NAND2X1
XOAI21X1_74 gnd vdd _621__bF$buf4 _840_ _172_ _842_ OAI21X1
XNAND2X1_85 vdd _843_ gnd Mem[0][2] _840_ NAND2X1
XOAI21X1_75 gnd vdd _623__bF$buf0 _840_ _173_ _843_ OAI21X1
XNAND2X1_86 vdd _844_ gnd Mem[0][3] _840_ NAND2X1
XOAI21X1_76 gnd vdd _625__bF$buf3 _840_ _174_ _844_ OAI21X1
XNAND2X1_87 vdd _845_ gnd Mem[0][4] _840_ NAND2X1
XOAI21X1_77 gnd vdd _627__bF$buf4 _840_ _175_ _845_ OAI21X1
XNAND2X1_88 vdd _846_ gnd Mem[0][5] _840_ NAND2X1
XOAI21X1_78 gnd vdd _629__bF$buf0 _840_ _176_ _846_ OAI21X1
XNAND2X1_89 vdd _847_ gnd Mem[0][6] _840_ NAND2X1
XOAI21X1_79 gnd vdd _631__bF$buf0 _840_ _177_ _847_ OAI21X1
XNAND2X1_90 vdd _848_ gnd Mem[0][7] _840_ NAND2X1
XOAI21X1_80 gnd vdd _633__bF$buf1 _840_ _178_ _848_ OAI21X1
XNAND2X1_91 vdd _849_ gnd _661_ _614_ NAND2X1
XOR2X2_1 _850_ _716_ vdd gnd _849_ OR2X2
XOAI21X1_81 gnd vdd _849_ _716_ _851_ Mem[6][0] OAI21X1
XOAI21X1_82 gnd vdd _850_ _609__bF$buf0 _179_ _851_ OAI21X1
XOAI21X1_83 gnd vdd _849_ _716_ _852_ Mem[6][1] OAI21X1
XOAI21X1_84 gnd vdd _850_ _621__bF$buf1 _180_ _852_ OAI21X1
XOAI21X1_85 gnd vdd _849_ _716_ _853_ Mem[6][2] OAI21X1
XOAI21X1_86 gnd vdd _850_ _623__bF$buf4 _181_ _853_ OAI21X1
XOAI21X1_87 gnd vdd _849_ _716_ _854_ Mem[6][3] OAI21X1
XOAI21X1_88 gnd vdd _850_ _625__bF$buf1 _182_ _854_ OAI21X1
XOAI21X1_89 gnd vdd _849_ _716_ _855_ Mem[6][4] OAI21X1
XOAI21X1_90 gnd vdd _850_ _627__bF$buf3 _183_ _855_ OAI21X1
XOAI21X1_91 gnd vdd _849_ _716_ _856_ Mem[6][5] OAI21X1
XOAI21X1_92 gnd vdd _850_ _629__bF$buf1 _184_ _856_ OAI21X1
XOAI21X1_93 gnd vdd _849_ _716_ _857_ Mem[6][6] OAI21X1
XOAI21X1_94 gnd vdd _850_ _631__bF$buf3 _185_ _857_ OAI21X1
XOAI21X1_95 gnd vdd _849_ _716_ _858_ Mem[6][7] OAI21X1
XOAI21X1_96 gnd vdd _850_ _633__bF$buf3 _186_ _858_ OAI21X1
XNOR2X1_21 vdd _638_ gnd _859_ _716_ NOR2X1
XNOR2X1_22 vdd _859_ gnd _860_ Mem[5][0] NOR2X1
XAOI21X1_17 gnd vdd _609__bF$buf2 _859_ _187_ _860_ AOI21X1
XNOR2X1_23 vdd _859_ gnd _861_ Mem[5][1] NOR2X1
XAOI21X1_18 gnd vdd _621__bF$buf1 _859_ _188_ _861_ AOI21X1
XNOR2X1_24 vdd _859_ gnd _862_ Mem[5][2] NOR2X1
XAOI21X1_19 gnd vdd _623__bF$buf4 _859_ _189_ _862_ AOI21X1
XNOR2X1_25 vdd _859_ gnd _863_ Mem[5][3] NOR2X1
XAOI21X1_20 gnd vdd _625__bF$buf1 _859_ _190_ _863_ AOI21X1
XNOR2X1_26 vdd _859_ gnd _269_ Mem[5][4] NOR2X1
XAOI21X1_21 gnd vdd _627__bF$buf3 _859_ _191_ _269_ AOI21X1
XNOR2X1_27 vdd _859_ gnd _270_ Mem[5][5] NOR2X1
XAOI21X1_22 gnd vdd _629__bF$buf0 _859_ _192_ _270_ AOI21X1
XNOR2X1_28 vdd _859_ gnd _271_ Mem[5][6] NOR2X1
XAOI21X1_23 gnd vdd _631__bF$buf3 _859_ _193_ _271_ AOI21X1
XNOR2X1_29 vdd _859_ gnd _272_ Mem[5][7] NOR2X1
XAOI21X1_24 gnd vdd _633__bF$buf3 _859_ _194_ _272_ AOI21X1
XNAND3X1_7 _705_ vdd gnd _614_ _674_ _273_ NAND3X1
XNAND2X1_92 vdd _274_ gnd Mem[23][0] _273_ NAND2X1
XOAI21X1_97 gnd vdd _609__bF$buf4 _273_ _197_ _274_ OAI21X1
XNAND2X1_93 vdd _275_ gnd Mem[23][1] _273_ NAND2X1
XOAI21X1_98 gnd vdd _621__bF$buf0 _273_ _198_ _275_ OAI21X1
XNAND2X1_94 vdd _276_ gnd Mem[23][2] _273_ NAND2X1
XOAI21X1_99 gnd vdd _623__bF$buf2 _273_ _199_ _276_ OAI21X1
XNAND2X1_95 vdd _277_ gnd Mem[23][3] _273_ NAND2X1
XOAI21X1_100 gnd vdd _625__bF$buf0 _273_ _200_ _277_ OAI21X1
XNAND2X1_96 vdd _278_ gnd Mem[23][4] _273_ NAND2X1
XOAI21X1_101 gnd vdd _627__bF$buf0 _273_ _201_ _278_ OAI21X1
XNAND2X1_97 vdd _279_ gnd Mem[23][5] _273_ NAND2X1
XOAI21X1_102 gnd vdd _629__bF$buf2 _273_ _202_ _279_ OAI21X1
XNAND2X1_98 vdd _280_ gnd Mem[23][6] _273_ NAND2X1
XOAI21X1_103 gnd vdd _631__bF$buf1 _273_ _203_ _280_ OAI21X1
XNAND2X1_99 vdd _281_ gnd Mem[23][7] _273_ NAND2X1
XOAI21X1_104 gnd vdd _633__bF$buf0 _273_ _204_ _281_ OAI21X1
XINVX1_33 Mem[24][0] _282_ vdd gnd INVX1
XNOR2X1_30 vdd _649_ gnd _283_ row_address[0] NOR2X1
XNAND2X1_100 vdd _284_ gnd _283_ _719_ NAND2X1
XMUX2X1_33 _284_ vdd gnd _205_ _282_ _609__bF$buf3 MUX2X1
XINVX1_34 Mem[24][1] _285_ vdd gnd INVX1
XMUX2X1_34 _284_ vdd gnd _206_ _285_ _621__bF$buf3 MUX2X1
XINVX1_35 Mem[24][2] _286_ vdd gnd INVX1
XMUX2X1_35 _284_ vdd gnd _207_ _286_ _623__bF$buf2 MUX2X1
XINVX1_36 Mem[24][3] _287_ vdd gnd INVX1
XMUX2X1_36 _284_ vdd gnd _208_ _287_ _625__bF$buf2 MUX2X1
XINVX1_37 Mem[24][4] _288_ vdd gnd INVX1
XMUX2X1_37 _284_ vdd gnd _209_ _288_ _627__bF$buf1 MUX2X1
XINVX1_38 Mem[24][5] _289_ vdd gnd INVX1
XMUX2X1_38 _284_ vdd gnd _210_ _289_ _629__bF$buf4 MUX2X1
XINVX1_39 Mem[24][6] _290_ vdd gnd INVX1
XMUX2X1_39 _284_ vdd gnd _211_ _290_ _631__bF$buf1 MUX2X1
XINVX1_40 Mem[24][7] _291_ vdd gnd INVX1
XMUX2X1_40 _284_ vdd gnd _212_ _291_ _633__bF$buf4 MUX2X1
XINVX1_41 Mem[25][0] _292_ vdd gnd INVX1
XNAND2X1_101 vdd _293_ gnd _283_ _639_ NAND2X1
XMUX2X1_41 _293_ vdd gnd _213_ _292_ _609__bF$buf3 MUX2X1
XINVX1_42 Mem[25][1] _294_ vdd gnd INVX1
XMUX2X1_42 _293_ vdd gnd _214_ _294_ _621__bF$buf0 MUX2X1
XINVX1_43 Mem[25][2] _295_ vdd gnd INVX1
XMUX2X1_43 _293_ vdd gnd _215_ _295_ _623__bF$buf2 MUX2X1
XINVX1_44 Mem[25][3] _296_ vdd gnd INVX1
XMUX2X1_44 _293_ vdd gnd _216_ _296_ _625__bF$buf2 MUX2X1
XINVX1_45 Mem[25][4] _297_ vdd gnd INVX1
XMUX2X1_45 _293_ vdd gnd _217_ _297_ _627__bF$buf1 MUX2X1
XINVX1_46 Mem[25][5] _298_ vdd gnd INVX1
XMUX2X1_46 _293_ vdd gnd _218_ _298_ _629__bF$buf2 MUX2X1
XINVX1_47 Mem[25][6] _299_ vdd gnd INVX1
XMUX2X1_47 _293_ vdd gnd _219_ _299_ _631__bF$buf4 MUX2X1
XINVX1_48 Mem[25][7] _300_ vdd gnd INVX1
XMUX2X1_48 _293_ vdd gnd _220_ _300_ _633__bF$buf2 MUX2X1
XINVX1_49 _283_ _301_ vdd gnd INVX1
XNOR2X1_31 vdd _849_ gnd _302_ _301_ NOR2X1
XNOR2X1_32 vdd _302_ gnd _303_ Mem[26][0] NOR2X1
XAOI21X1_25 gnd vdd _609__bF$buf3 _302_ _221_ _303_ AOI21X1
XNOR2X1_33 vdd _302_ gnd _304_ Mem[26][1] NOR2X1
XAOI21X1_26 gnd vdd _621__bF$buf3 _302_ _222_ _304_ AOI21X1
XNOR2X1_34 vdd _302_ gnd _305_ Mem[26][2] NOR2X1
XAOI21X1_27 gnd vdd _623__bF$buf2 _302_ _223_ _305_ AOI21X1
XNOR2X1_35 vdd _302_ gnd _306_ Mem[26][3] NOR2X1
XAOI21X1_28 gnd vdd _625__bF$buf0 _302_ _224_ _306_ AOI21X1
XNOR2X1_36 vdd _302_ gnd _307_ Mem[26][4] NOR2X1
XAOI21X1_29 gnd vdd _627__bF$buf1 _302_ _225_ _307_ AOI21X1
XNOR2X1_37 vdd _302_ gnd _308_ Mem[26][5] NOR2X1
XAOI21X1_30 gnd vdd _629__bF$buf4 _302_ _226_ _308_ AOI21X1
XNOR2X1_38 vdd _302_ gnd _309_ Mem[26][6] NOR2X1
XAOI21X1_31 gnd vdd _631__bF$buf4 _302_ _227_ _309_ AOI21X1
XNOR2X1_39 vdd _302_ gnd _310_ Mem[26][7] NOR2X1
XAOI21X1_32 gnd vdd _633__bF$buf4 _302_ _228_ _310_ AOI21X1
XINVX1_50 Mem[27][0] _311_ vdd gnd INVX1
XNAND2X1_102 vdd _312_ gnd _283_ _756_ NAND2X1
XMUX2X1_49 _312_ vdd gnd _229_ _311_ _609__bF$buf3 MUX2X1
XINVX1_51 Mem[27][1] _313_ vdd gnd INVX1
XMUX2X1_50 _312_ vdd gnd _230_ _313_ _621__bF$buf0 MUX2X1
XINVX1_52 Mem[27][2] _314_ vdd gnd INVX1
XMUX2X1_51 _312_ vdd gnd _231_ _314_ _623__bF$buf2 MUX2X1
XINVX1_53 Mem[27][3] _315_ vdd gnd INVX1
XMUX2X1_52 _312_ vdd gnd _232_ _315_ _625__bF$buf0 MUX2X1
XINVX1_54 Mem[27][4] _316_ vdd gnd INVX1
XMUX2X1_53 _312_ vdd gnd _233_ _316_ _627__bF$buf1 MUX2X1
XINVX1_55 Mem[27][5] _317_ vdd gnd INVX1
XMUX2X1_54 _312_ vdd gnd _234_ _317_ _629__bF$buf4 MUX2X1
XINVX1_56 Mem[27][6] _318_ vdd gnd INVX1
XMUX2X1_55 _312_ vdd gnd _235_ _318_ _631__bF$buf4 MUX2X1
XINVX1_57 Mem[27][7] _319_ vdd gnd INVX1
XMUX2X1_56 _312_ vdd gnd _236_ _319_ _633__bF$buf4 MUX2X1
XNAND3X1_8 _694_ vdd gnd _614_ _811_ _320_ NAND3X1
XNAND2X1_103 vdd _321_ gnd Mem[28][0] _320_ NAND2X1
XOAI21X1_105 gnd vdd _609__bF$buf3 _320_ _237_ _321_ OAI21X1
XNAND2X1_104 vdd _322_ gnd Mem[28][1] _320_ NAND2X1
XOAI21X1_106 gnd vdd _621__bF$buf3 _320_ _238_ _322_ OAI21X1
XNAND2X1_105 vdd _323_ gnd Mem[28][2] _320_ NAND2X1
XOAI21X1_107 gnd vdd _623__bF$buf1 _320_ _239_ _323_ OAI21X1
XNAND2X1_106 vdd _324_ gnd Mem[28][3] _320_ NAND2X1
XOAI21X1_108 gnd vdd _625__bF$buf2 _320_ _240_ _324_ OAI21X1
XNAND2X1_107 vdd _325_ gnd Mem[28][4] _320_ NAND2X1
XOAI21X1_109 gnd vdd _627__bF$buf1 _320_ _241_ _325_ OAI21X1
XNAND2X1_108 vdd _326_ gnd Mem[28][5] _320_ NAND2X1
XOAI21X1_110 gnd vdd _629__bF$buf2 _320_ _242_ _326_ OAI21X1
XNAND2X1_109 vdd _327_ gnd Mem[28][6] _320_ NAND2X1
XOAI21X1_111 gnd vdd _631__bF$buf4 _320_ _243_ _327_ OAI21X1
XNAND2X1_110 vdd _328_ gnd Mem[28][7] _320_ NAND2X1
XOAI21X1_112 gnd vdd _633__bF$buf2 _320_ _244_ _328_ OAI21X1
XNAND2X1_111 vdd _329_ gnd _661_ _839_ NAND2X1
XNAND2X1_112 vdd _330_ gnd Mem[2][0] _329_ NAND2X1
XOAI21X1_113 gnd vdd _609__bF$buf1 _329_ _245_ _330_ OAI21X1
XNAND2X1_113 vdd _331_ gnd Mem[2][1] _329_ NAND2X1
XOAI21X1_114 gnd vdd _621__bF$buf4 _329_ _246_ _331_ OAI21X1
XNAND2X1_114 vdd _332_ gnd Mem[2][2] _329_ NAND2X1
XOAI21X1_115 gnd vdd _623__bF$buf4 _329_ _247_ _332_ OAI21X1
XNAND2X1_115 vdd _333_ gnd Mem[2][3] _329_ NAND2X1