*SPEF "IEEE 1481.1999"
*DESIGN "ram32_sram"
*DATE "10:32:12 Saturday November 30, 2024"
*VENDOR "unknown"
*PROGRAM "qrouter"
*VERSION "unknown"
*DESIGN_FLOW "qflow"
*DIVIDER /
*DELIMITER :
*BUS_DELIMITER <>
*T_UNIT 1 PS
*C_UNIT 1 FF
*R_UNIT 1 OHM
*L_UNIT 1 HENRY

*NAME_MAP
*1 clk
*2 CLKBUF1_42
*3 CLKBUF1_41
*4 CLKBUF1_40
*5 CLKBUF1_39
*6 CLKBUF1_47
*7 CLKBUF1_43
*8 CLKBUF1_44
*9 CLKBUF1_38
*10 CLKBUF1_48
*11 CLKBUF1_34
*12 CLKBUF1_33
*13 CLKBUF1_45
*14 CLKBUF1_36
*15 CLKBUF1_35
*16 CLKBUF1_46
*17 CLKBUF1_37
*18 clk_bF_buf7
*19 CLKBUF1_41
*20 CLKBUF1_29
*21 DFFPOSX1_233
*22 DFFPOSX1_249
*23 DFFPOSX1_153
*24 DFFPOSX1_139
*25 DFFPOSX1_73
*26 CLKBUF1_32
*27 DFFPOSX1_89
*28 DFFPOSX1_137
*29 CLKBUF1_22
*30 DFFPOSX1_41
*31 DFFPOSX1_27
*32 CLKBUF1_30
*33 DFFPOSX1_11
*34 DFFPOSX1_90
*35 CLKBUF1_28
*36 clk_bF_buf6
*37 CLKBUF1_42
*38 DFFPOSX1_9
*39 DFFPOSX1_25
*40 CLKBUF1_31
*41 DFFPOSX1_217
*42 CLKBUF1_27
*43 DFFPOSX1_218
*44 DFFPOSX1_106
*45 CLKBUF1_15
*46 DFFPOSX1_31
*47 DFFPOSX1_250
*48 DFFPOSX1_42
*49 DFFPOSX1_122
*50 DFFPOSX1_170
*51 DFFPOSX1_186
*52 CLKBUF1_25
*53 DFFPOSX1_74
*54 clk_bF_buf5
*55 CLKBUF1_43
*56 DFFPOSX1_204
*57 DFFPOSX1_140
*58 DFFPOSX1_188
*59 DFFPOSX1_60
*60 DFFPOSX1_108
*61 DFFPOSX1_158
*62 CLKBUF1_19
*63 DFFPOSX1_62
*64 CLKBUF1_20
*65 DFFPOSX1_220
*66 DFFPOSX1_96
*67 DFFPOSX1_142
*68 DFFPOSX1_124
*69 DFFPOSX1_254
*70 DFFPOSX1_46
*71 DFFPOSX1_156
*72 clk_bF_buf4
*73 CLKBUF1_44
*74 DFFPOSX1_208
*75 CLKBUF1_3
*76 DFFPOSX1_176
*77 CLKBUF1_2
*78 DFFPOSX1_107
*79 DFFPOSX1_224
*80 DFFPOSX1_203
*81 DFFPOSX1_32
*82 DFFPOSX1_172
*83 DFFPOSX1_16
*84 DFFPOSX1_219
*85 DFFPOSX1_59
*86 DFFPOSX1_235
*87 DFFPOSX1_187
*88 DFFPOSX1_75
*89 DFFPOSX1_123
*90 clk_bF_buf3
*91 CLKBUF1_45
*92 DFFPOSX1_78
*93 DFFPOSX1_236
*94 CLKBUF1_11
*95 DFFPOSX1_190
*96 DFFPOSX1_110
*97 DFFPOSX1_222
*98 DFFPOSX1_206
*99 DFFPOSX1_174
*100 DFFPOSX1_252
*101 CLKBUF1_12
*102 DFFPOSX1_44
*103 DFFPOSX1_238
*104 CLKBUF1_9
*105 DFFPOSX1_191
*106 DFFPOSX1_94
*107 DFFPOSX1_126
*108 clk_bF_buf2
*109 CLKBUF1_46
*110 DFFPOSX1_138
*111 DFFPOSX1_29
*112 DFFPOSX1_45
*113 DFFPOSX1_253
*114 DFFPOSX1_61
*115 CLKBUF1_14
*116 CLKBUF1_6
*117 DFFPOSX1_95
*118 DFFPOSX1_221
*119 DFFPOSX1_111
*120 CLKBUF1_16
*121 DFFPOSX1_13
*122 DFFPOSX1_157
*123 DFFPOSX1_141
*124 DFFPOSX1_58
*125 DFFPOSX1_237
*126 clk_bF_buf1
*127 CLKBUF1_47
*128 DFFPOSX1_15
*129 DFFPOSX1_47
*130 DFFPOSX1_255
*131 DFFPOSX1_189
*132 DFFPOSX1_173
*133 CLKBUF1_7
*134 DFFPOSX1_207
*135 DFFPOSX1_175
*136 DFFPOSX1_223
*137 DFFPOSX1_63
*138 CLKBUF1_5
*139 DFFPOSX1_127
*140 DFFPOSX1_239
*141 DFFPOSX1_30
*142 DFFPOSX1_14
*143 DFFPOSX1_159
*144 clk_bF_buf0
*145 CLKBUF1_48
*146 DFFPOSX1_48
*147 CLKBUF1_21
*148 DFFPOSX1_171
*149 DFFPOSX1_256
*150 DFFPOSX1_155
*151 DFFPOSX1_91
*152 DFFPOSX1_121
*153 DFFPOSX1_105
*154 DFFPOSX1_57
*155 DFFPOSX1_185
*156 DFFPOSX1_251
*157 DFFPOSX1_201
*158 CLKBUF1_24
*159 DFFPOSX1_169
*160 CLKBUF1_23
*161 DFFPOSX1_43
*162 _680_
*163 NAND2X1_283
*164 NAND2X1_285
*165 OAI21X1_232
*166 NAND2X1_284
*167 OAI21X1_231
*168 NAND2X1_1
*169 OAI21X1_1
*170 OAI21X1_6
*171 NAND2X1_4
*172 OAI21X1_4
*173 NAND2X1_2
*174 OAI21X1_2
*175 NAND2X1_6
*176 OAI21X1_5
*177 NAND2X1_5
*178 OAI21X1_3
*179 NAND2X1_3
*180 _691_
*181 NAND2X1_8
*182 OAI21X1_13
*183 NAND2X1_15
*184 NAND2X1_13
*185 OAI21X1_11
*186 OAI21X1_8
*187 NAND2X1_10
*188 OAI21X1_9
*189 OAI21X1_7
*190 NAND2X1_9
*191 NAND2X1_11
*192 OAI21X1_14
*193 NAND2X1_16
*194 OAI21X1_10
*195 NAND2X1_12
*196 OAI21X1_12
*197 NAND2X1_14
*198 _701_
*199 AND2X2_1
*200 NOR2X1_5
*201 AOI21X1_3
*202 NOR2X1_3
*203 AOI21X1_1
*204 AOI21X1_2
*205 NOR2X1_4
*206 AOI21X1_7
*207 NOR2X1_9
*208 NOR2X1_7
*209 AOI21X1_5
*210 AOI21X1_4
*211 NOR2X1_6
*212 AOI21X1_8
*213 NOR2X1_10
*214 NOR2X1_8
*215 AOI21X1_6
*216 _710_
*217 NAND2X1_17
*218 NAND2X1_20
*219 OAI21X1_17
*220 NAND2X1_21
*221 OAI21X1_22
*222 OAI21X1_18
*223 NAND2X1_23
*224 NAND2X1_25
*225 OAI21X1_20
*226 OAI21X1_19
*227 NAND2X1_22
*228 OAI21X1_21
*229 NAND2X1_24
*230 OAI21X1_16
*231 NAND2X1_19
*232 OAI21X1_15
*233 NAND2X1_18
*234 _719_
*235 NAND2X1_26
*236 NAND2X1_30
*237 NAND2X1_34
*238 OAI21X1_30
*239 OAI21X1_26
*240 NAND2X1_32
*241 OAI21X1_28
*242 NAND2X1_29
*243 OAI21X1_25
*244 OAI21X1_24
*245 OAI21X1_27
*246 NAND2X1_31
*247 OAI21X1_29
*248 NAND2X1_33
*249 NAND2X1_28
*250 OAI21X1_23
*251 NAND2X1_27
*252 _728_
*253 AND2X2_2
*254 NOR2X1_17
*255 AOI21X1_15
*256 AOI21X1_10
*257 NOR2X1_12
*258 AOI21X1_9
*259 NOR2X1_11
*260 NOR2X1_13
*261 AOI21X1_11
*262 NOR2X1_18
*263 AOI21X1_16
*264 AOI21X1_14
*265 NOR2X1_16
*266 AOI21X1_12
*267 NOR2X1_14
*268 NOR2X1_15
*269 AOI21X1_13
*270 _737_
*271 NAND2X1_35
*272 OAI21X1_32
*273 NAND2X1_40
*274 OAI21X1_35
*275 NAND2X1_42
*276 OAI21X1_37
*277 NAND2X1_37
*278 OAI21X1_31
*279 NAND2X1_36
*280 OAI21X1_34
*281 NAND2X1_39
*282 OAI21X1_36
*283 NAND2X1_41
*284 NAND2X1_38
*285 OAI21X1_33
*286 OAI21X1_38
*287 NAND2X1_43
*288 _746_
*289 NAND2X1_44
*290 NAND2X1_46
*291 OAI21X1_40
*292 OAI21X1_39
*293 NAND2X1_45
*294 NAND2X1_47
*295 OAI21X1_41
*296 NAND2X1_52
*297 OAI21X1_46
*298 OAI21X1_42
*299 NAND2X1_48
*300 OAI21X1_44
*301 NAND2X1_50
*302 OAI21X1_45
*303 NAND2X1_51
*304 OAI21X1_43
*305 NAND2X1_49
*306 _755_
*307 NAND2X1_53
*308 NAND2X1_60
*309 OAI21X1_53
*310 OAI21X1_51
*311 NAND2X1_58
*312 OAI21X1_48
*313 NAND2X1_55
*314 OAI21X1_50
*315 NAND2X1_57
*316 NAND2X1_59
*317 OAI21X1_52
*318 NAND2X1_54
*319 OAI21X1_47
*320 OAI21X1_49
*321 NAND2X1_56
*322 OAI21X1_54
*323 NAND2X1_61
*324 _764_
*325 NAND2X1_62
*326 NAND2X1_69
*327 OAI21X1_61
*328 OAI21X1_58
*329 NAND2X1_66
*330 OAI21X1_60
*331 NAND2X1_68
*332 NAND2X1_70
*333 OAI21X1_62
*334 OAI21X1_56
*335 NAND2X1_64
*336 NAND2X1_67
*337 OAI21X1_59
*338 NAND2X1_63
*339 OAI21X1_55
*340 NAND2X1_65
*341 OAI21X1_57
*342 _773_
*343 NAND2X1_71
*344 NAND2X1_78
*345 OAI21X1_69
*346 NAND2X1_77
*347 OAI21X1_68
*348 OAI21X1_66
*349 NAND2X1_75
*350 OAI21X1_70
*351 NAND2X1_79
*352 OAI21X1_67
*353 NAND2X1_76
*354 OAI21X1_64
*355 NAND2X1_73
*356 NAND2X1_74
*357 OAI21X1_65
*358 NAND2X1_72
*359 OAI21X1_63
*360 _782_
*361 NAND2X1_80
*362 NAND2X1_87
*363 OAI21X1_77
*364 NAND2X1_86
*365 OAI21X1_76
*366 OAI21X1_74
*367 NAND2X1_84
*368 OAI21X1_78
*369 NAND2X1_88
*370 NAND2X1_85
*371 OAI21X1_75
*372 OAI21X1_72
*373 NAND2X1_82
*374 NAND2X1_83
*375 OAI21X1_73
*376 OAI21X1_71
*377 NAND2X1_81
*378 _791_
*379 NAND2X1_89
*380 OAI21X1_80
*381 NAND2X1_90
*382 OAI21X1_79
*383 OAI21X1_81
*384 NAND2X1_92
*385 OAI21X1_86
*386 NAND2X1_97
*387 OAI21X1_82
*388 NAND2X1_93
*389 OAI21X1_84
*390 NAND2X1_95
*391 OAI21X1_85
*392 NAND2X1_96
*393 NAND2X1_91
*394 OAI21X1_83
*395 NAND2X1_94
*396 _800_
*397 NAND2X1_98
*398 OAI21X1_93
*399 NAND2X1_105
*400 NAND2X1_103
*401 OAI21X1_91
*402 OAI21X1_88
*403 NAND2X1_100
*404 NAND2X1_99
*405 OAI21X1_87
*406 NAND2X1_101
*407 OAI21X1_89
*408 OAI21X1_94
*409 NAND2X1_106
*410 OAI21X1_90
*411 NAND2X1_102
*412 NAND2X1_104
*413 OAI21X1_92
*414 _810_
*415 NAND2X1_107
*416 OAI21X1_96
*417 NAND2X1_109
*418 OAI21X1_98
*419 NAND2X1_111
*420 NAND2X1_115
*421 OAI21X1_102
*422 NAND2X1_108
*423 OAI21X1_97
*424 NAND2X1_110
*425 OAI21X1_95
*426 NAND2X1_114
*427 OAI21X1_101
*428 NAND2X1_112
*429 OAI21X1_99
*430 NAND2X1_113
*431 OAI21X1_100
*432 _819_
*433 NAND2X1_116
*434 NAND2X1_118
*435 OAI21X1_104
*436 NAND2X1_123
*437 OAI21X1_109
*438 OAI21X1_107
*439 NAND2X1_121
*440 NAND2X1_122
*441 OAI21X1_108
*442 OAI21X1_106
*443 NAND2X1_120
*444 NAND2X1_124
*445 OAI21X1_110
*446 OAI21X1_105
*447 NAND2X1_119
*448 OAI21X1_103
*449 NAND2X1_117
*450 _828_
*451 NAND2X1_125
*452 OAI21X1_112
*453 NAND2X1_127
*454 OAI21X1_111
*455 NAND2X1_126
*456 OAI21X1_113
*457 NAND2X1_128
*458 OAI21X1_118
*459 NAND2X1_133
*460 NAND2X1_129
*461 OAI21X1_114
*462 NAND2X1_130
*463 OAI21X1_115
*464 OAI21X1_117
*465 NAND2X1_132
*466 OAI21X1_116
*467 NAND2X1_131
*468 _837_
*469 NAND2X1_134
*470 OAI21X1_120
*471 NAND2X1_136
*472 NAND2X1_135
*473 OAI21X1_119
*474 OAI21X1_121
*475 NAND2X1_137
*476 NAND2X1_142
*477 OAI21X1_126
*478 NAND2X1_138
*479 OAI21X1_122
*480 OAI21X1_123
*481 NAND2X1_139
*482 NAND2X1_141
*483 OAI21X1_125
*484 OAI21X1_124
*485 NAND2X1_140
*486 _266_
*487 NAND2X1_143
*488 NAND2X1_145
*489 OAI21X1_128
*490 NAND2X1_144
*491 OAI21X1_127
*492 NAND2X1_146
*493 OAI21X1_129
*494 OAI21X1_134
*495 OAI21X1_130
*496 NAND2X1_147
*497 OAI21X1_131
*498 NAND2X1_148
*499 OAI21X1_133
*500 NAND2X1_150
*501 NAND2X1_149
*502 OAI21X1_132
*503 NAND2X1_151
*504 _275_
*505 NAND2X1_152
*506 OAI21X1_136
*507 NAND2X1_154
*508 NAND2X1_153
*509 OAI21X1_135
*510 OAI21X1_139
*511 NAND2X1_157
*512 NAND2X1_159
*513 OAI21X1_141
*514 NAND2X1_158
*515 OAI21X1_140
*516 NAND2X1_156
*517 OAI21X1_138
*518 NAND2X1_160
*519 OAI21X1_142
*520 NAND2X1_155
*521 OAI21X1_137
*522 _284_
*523 NAND2X1_161
*524 OAI21X1_144
*525 NAND2X1_162
*526 OAI21X1_143
*527 NAND2X1_164
*528 OAI21X1_145
*529 OAI21X1_146
*530 NAND2X1_165
*531 OAI21X1_150
*532 NAND2X1_169
*533 NAND2X1_163
*534 NAND2X1_168
*535 OAI21X1_149
*536 OAI21X1_147
*537 NAND2X1_166
*538 OAI21X1_148
*539 NAND2X1_167
*540 _293_
*541 NAND2X1_170
*542 NAND2X1_172
*543 NAND2X1_171
*544 OAI21X1_151
*545 OAI21X1_153
*546 NAND2X1_173
*547 OAI21X1_152
*548 NAND2X1_174
*549 OAI21X1_154
*550 OAI21X1_158
*551 NAND2X1_178
*552 NAND2X1_177
*553 OAI21X1_156
*554 NAND2X1_176
*555 OAI21X1_157
*556 NAND2X1_175
*557 OAI21X1_155
*558 _302_
*559 NAND2X1_179
*560 OAI21X1_165
*561 NAND2X1_186
*562 NAND2X1_184
*563 OAI21X1_163
*564 OAI21X1_159
*565 NAND2X1_180
*566 OAI21X1_160
*567 NAND2X1_181
*568 NAND2X1_182
*569 OAI21X1_161
*570 NAND2X1_187
*571 NAND2X1_183
*572 OAI21X1_162
*573 OAI21X1_166
*574 OAI21X1_164
*575 NAND2X1_185
*576 _311_
*577 NAND2X1_188
*578 OAI21X1_171
*579 NAND2X1_193
*580 OAI21X1_173
*581 NAND2X1_195
*582 NAND2X1_189
*583 OAI21X1_167
*584 OAI21X1_169
*585 NAND2X1_191
*586 NAND2X1_196
*587 OAI21X1_174
*588 OAI21X1_170
*589 NAND2X1_192
*590 NAND2X1_194
*591 OAI21X1_172
*592 NAND2X1_190
*593 OAI21X1_168
*594 _320_
*595 AND2X2_3
*596 NOR2X1_27
*597 AOI21X1_23
*598 NOR2X1_26
*599 AOI21X1_22
*600 NOR2X1_24
*601 AOI21X1_20
*602 NOR2X1_22
*603 AOI21X1_18
*604 NOR2X1_23
*605 AOI21X1_19
*606 AOI21X1_24
*607 NOR2X1_28
*608 AOI21X1_17
*609 NOR2X1_21
*610 NOR2X1_25
*611 AOI21X1_21
*612 _595_
*613 NAND2X1_224
*614 OAI21X1_186
*615 NAND2X1_228
*616 OAI21X1_190
*617 NAND2X1_232
*618 OAI21X1_183
*619 NAND2X1_225
*620 NAND2X1_227
*621 OAI21X1_185
*622 NAND2X1_226
*623 OAI21X1_184
*624 OAI21X1_187
*625 NAND2X1_229
*626 NAND2X1_231
*627 OAI21X1_189
*628 NAND2X1_230
*629 OAI21X1_188
*630 _613_
*631 NAND2X1_233
*632 OAI21X1_197
*633 OAI21X1_194
*634 NAND2X1_237
*635 OAI21X1_198
*636 NAND2X1_241
*637 OAI21X1_196
*638 NAND2X1_239
*639 NAND2X1_240
*640 OAI21X1_195
*641 NAND2X1_238
*642 NAND2X1_235
*643 NAND2X1_234
*644 NAND2X1_236
*645 OAI21X1_193
*646 OAI21X1_191
*647 OAI21X1_192
*648 _624_
*649 NAND2X1_243
*650 OAI21X1_205
*651 NAND2X1_250
*652 OAI21X1_203
*653 NAND2X1_248
*654 NAND2X1_245
*655 OAI21X1_200
*656 NAND2X1_244
*657 OAI21X1_199
*658 OAI21X1_201
*659 NAND2X1_246
*660 NAND2X1_247
*661 OAI21X1_202
*662 NAND2X1_249
*663 OAI21X1_204
*664 NAND2X1_251
*665 OAI21X1_206
*666 _636_
*667 NAND2X1_253
*668 OAI21X1_213
*669 NAND2X1_260
*670 NAND2X1_257
*671 OAI21X1_210
*672 OAI21X1_214
*673 NAND2X1_261
*674 NAND2X1_259
*675 OAI21X1_212
*676 OAI21X1_207
*677 NAND2X1_254
*678 OAI21X1_208
*679 NAND2X1_255
*680 NAND2X1_258
*681 OAI21X1_211
*682 NAND2X1_256
*683 OAI21X1_209
*684 _648_
*685 NAND2X1_263
*686 OAI21X1_221
*687 NAND2X1_270
*688 NAND2X1_269
*689 OAI21X1_220
*690 OAI21X1_218
*691 NAND2X1_267
*692 OAI21X1_222
*693 NAND2X1_271
*694 OAI21X1_216
*695 NAND2X1_265
*696 OAI21X1_219
*697 NAND2X1_268
*698 NAND2X1_266
*699 OAI21X1_217
*700 OAI21X1_215
*701 NAND2X1_264
*702 _660_
*703 AND2X2_4
*704 AOI21X1_38
*705 NOR2X1_40
*706 AOI21X1_39
*707 NOR2X1_41
*708 AOI21X1_36
*709 NOR2X1_38
*710 NOR2X1_36
*711 AOI21X1_34
*712 AOI21X1_35
*713 NOR2X1_37
*714 AOI21X1_40
*715 NOR2X1_42
*716 AOI21X1_33
*717 NOR2X1_35
*718 NOR2X1_39
*719 AOI21X1_37
*720 _669_
*721 NAND2X1_273
*722 OAI21X1_229
*723 NAND2X1_280
*724 NAND2X1_278
*725 OAI21X1_227
*726 OAI21X1_225
*727 NAND2X1_276
*728 OAI21X1_223
*729 NAND2X1_274
*730 NAND2X1_275
*731 OAI21X1_224
*732 OAI21X1_226
*733 NAND2X1_277
*734 OAI21X1_230
*735 NAND2X1_281
*736 NAND2X1_279
*737 OAI21X1_228
*738 address[0_bF_buf10]
*739 BUFX4_29
*740 MUX2X1_133
*741 MUX2X1_83
*742 MUX2X1_182
*743 MUX2X1_166
*744 MUX2X1_149
*745 MUX2X1_100
*746 MUX2X1_116
*747 MUX2X1_34
*748 MUX2X1_1
*749 MUX2X1_17
*750 MUX2X1_67
*751 MUX2X1_50
*752 address[0_bF_buf9]
*753 BUFX4_30
*754 MUX2X1_167
*755 MUX2X1_118
*756 MUX2X1_101
*757 MUX2X1_151
*758 MUX2X1_134
*759 MUX2X1_85
*760 MUX2X1_184
*761 MUX2X1_52
*762 MUX2X1_68
*763 MUX2X1_2
*764 MUX2X1_35
*765 MUX2X1_19
*766 address[0_bF_buf8]
*767 BUFX4_31
*768 MUX2X1_119
*769 MUX2X1_152
*770 MUX2X1_103
*771 MUX2X1_37
*772 MUX2X1_4
*773 MUX2X1_20
*774 MUX2X1_136
*775 MUX2X1_86
*776 MUX2X1_53
*777 MUX2X1_185
*778 MUX2X1_70
*779 MUX2X1_169
*780 address[0_bF_buf7]
*781 BUFX4_32
*782 MUX2X1_88
*783 MUX2X1_121
*784 MUX2X1_137
*785 MUX2X1_154
*786 MUX2X1_104
*787 MUX2X1_38
*788 MUX2X1_5
*789 MUX2X1_55
*790 MUX2X1_22
*791 MUX2X1_71
*792 MUX2X1_187
*793 MUX2X1_170
*794 address[0_bF_buf6]
*795 BUFX4_33
*796 MUX2X1_89
*797 MUX2X1_122
*798 MUX2X1_73
*799 MUX2X1_172
*800 MUX2X1_188
*801 MUX2X1_139
*802 MUX2X1_155
*803 MUX2X1_40
*804 MUX2X1_56
*805 MUX2X1_23
*806 MUX2X1_7
*807 MUX2X1_106
*808 address[0_bF_buf5]
*809 BUFX4_34
*810 MUX2X1_157
*811 MUX2X1_124
*812 MUX2X1_140
*813 MUX2X1_74
*814 MUX2X1_91
*815 MUX2X1_190
*816 MUX2X1_173
*817 MUX2X1_41
*818 MUX2X1_8
*819 MUX2X1_25
*820 MUX2X1_58
*821 MUX2X1_107
*822 address[0_bF_buf4]
*823 BUFX4_35
*824 MUX2X1_142
*825 MUX2X1_125
*826 MUX2X1_76
*827 MUX2X1_92
*828 MUX2X1_191
*829 MUX2X1_175
*830 MUX2X1_158
*831 MUX2X1_109
*832 MUX2X1_43
*833 MUX2X1_26
*834 MUX2X1_10
*835 MUX2X1_59
*836 address[0_bF_buf3]
*837 BUFX4_36
*838 MUX2X1_143
*839 MUX2X1_127
*840 NAND2X1_223
*841 MUX2X1_160
*842 MUX2X1_110
*843 MUX2X1_28
*844 MUX2X1_44
*845 MUX2X1_11
*846 MUX2X1_94
*847 MUX2X1_176
*848 MUX2X1_61
*849 MUX2X1_77
*850 address[0_bF_buf2]
*851 BUFX4_37
*852 MUX2X1_161
*853 NAND2X1_242
*854 MUX2X1_79
*855 MUX2X1_178
*856 MUX2X1_62
*857 MUX2X1_13
*858 MUX2X1_29
*859 MUX2X1_46
*860 MUX2X1_112
*861 MUX2X1_145
*862 MUX2X1_95
*863 MUX2X1_128
*864 address[0_bF_buf1]
*865 BUFX4_38
*866 MUX2X1_130
*867 MUX2X1_80
*868 MUX2X1_163
*869 INVX1_3
*870 MUX2X1_47
*871 MUX2X1_14
*872 MUX2X1_31
*873 MUX2X1_113
*874 MUX2X1_97
*875 MUX2X1_146
*876 MUX2X1_179
*877 MUX2X1_64
*878 _590_
*879 NOR2X1_29
*880 AOI22X1_6
*881 AOI22X1_18
*882 AOI22X1_26
*883 NAND2X1_224
*884 NAND2X1_26
*885 NAND2X1_273
*886 AOI22X1_14
*887 AOI22X1_22
*888 AOI22X1_30
*889 NAND2X1_8
*890 AOI22X1_2
*891 AOI22X1_10
*892 _700_
*893 NOR2X1_2
*894 AOI22X1_1
*895 AOI22X1_5
*896 AOI22X1_17
*897 AOI22X1_25
*898 NAND2X1_98
*899 NAND2X1_188
*900 NAND2X1_17
*901 AND2X2_1
*902 AOI22X1_9
*903 AOI22X1_13
*904 AOI22X1_21
*905 AOI22X1_29
*906 _659_
*907 INVX8_9
*908 AOI22X1_7
*909 NAND2X1_179
*910 AND2X2_4
*911 AOI22X1_27
*912 AND2X2_3
*913 AND2X2_2
*914 AOI22X1_19
*915 AOI22X1_15
*916 AOI22X1_31
*917 AOI22X1_11
*918 AOI22X1_23
*919 AOI22X1_3
*920 _679_
*921 NOR2X1_43
*922 AOI22X1_5
*923 AOI22X1_25
*924 AOI22X1_17
*925 NAND2X1_44
*926 NAND2X1_283
*927 NAND2X1_53
*928 NAND2X1_35
*929 AOI22X1_9
*930 AOI22X1_13
*931 AOI22X1_21
*932 AOI22X1_29
*933 AOI22X1_1
*934 _612_
*935 NOR2X1_31
*936 AOI22X1_2
*937 AOI22X1_6
*938 AOI22X1_10
*939 NAND2X1_233
*940 AOI22X1_26
*941 AOI22X1_18
*942 NAND2X1_253
*943 NAND2X1_243
*944 AOI22X1_22
*945 AOI22X1_14
*946 AOI22X1_30
*947 NAND2X1_62
*948 _647_
*949 NOR2X1_34
*950 AOI22X1_8
*951 NAND2X1_80
*952 AOI22X1_20
*953 NAND2X1_89
*954 NAND2X1_71
*955 NAND2X1_263
*956 AOI22X1_28
*957 AOI22X1_16
*958 AOI22X1_32
*959 AOI22X1_24
*960 AOI22X1_12
*961 AOI22X1_4
*962 _809_
*963 NOR2X1_19
*964 AOI22X1_8
*965 NAND2X1_125
*966 NAND2X1_116
*967 AOI22X1_20
*968 NAND2X1_107
*969 NAND2X1_134
*970 AOI22X1_16
*971 AOI22X1_24
*972 AOI22X1_12
*973 AOI22X1_32
*974 AOI22X1_28
*975 AOI22X1_4
*976 _265_
*977 NOR2X1_20
*978 AOI22X1_3
*979 AOI22X1_11
*980 AOI22X1_31
*981 AOI22X1_15
*982 AOI22X1_23
*983 AOI22X1_7
*984 NAND2X1_143
*985 NAND2X1_170
*986 NAND2X1_161
*987 AOI22X1_27
*988 NAND2X1_152
*989 AOI22X1_19
*990 address[0]
*991 BUFX4_36
*992 BUFX4_32
*993 BUFX4_39
*994 BUFX4_33
*995 BUFX4_30
*996 BUFX4_31
*997 BUFX4_38
*998 BUFX4_35
*999 BUFX4_34
*1000 BUFX4_37
*1001 BUFX4_29
*1002 address[0_bF_buf0]
*1003 BUFX4_39
*1004 MUX2X1_164
*1005 MUX2X1_148
*1006 MUX2X1_82
*1007 MUX2X1_49
*1008 MUX2X1_65
*1009 MUX2X1_181
*1010 MUX2X1_115
*1011 MUX2X1_32
*1012 MUX2X1_16
*1013 MUX2X1_98
*1014 MUX2X1_131
*1015 r_w
*1016 NAND2X1_218
*1017 NAND2X1_203
*1018 INVX4_2
*1019 NAND2X1_200
*1020 NAND2X1_197
*1021 NAND2X1_215
*1022 NAND2X1_209
*1023 NAND2X1_206
*1024 NAND2X1_212
*1025 NAND2X1_222
*1026 address[1_bF_buf7]
*1027 BUFX4_6
*1028 MUX2X1_144
*1029 MUX2X1_96
*1030 MUX2X1_192
*1031 MUX2X1_72
*1032 MUX2X1_24
*1033 MUX2X1_48
*1034 MUX2X1_168
*1035 MUX2X1_120
*1036 NAND2X1_7
*1037 address[1_bF_buf6]
*1038 BUFX4_7
*1039 INVX1_2
*1040 MUX2X1_99
*1041 MUX2X1_147
*1042 MUX2X1_27
*1043 MUX2X1_3
*1044 MUX2X1_51
*1045 MUX2X1_171
*1046 MUX2X1_75
*1047 MUX2X1_123
*1048 address[1_bF_buf5]
*1049 BUFX4_8
*1050 NAND2X1_242
*1051 MUX2X1_150
*1052 MUX2X1_102
*1053 MUX2X1_30
*1054 MUX2X1_6
*1055 MUX2X1_54
*1056 MUX2X1_126
*1057 MUX2X1_78
*1058 MUX2X1_174
*1059 address[1]
*1060 BUFX4_6
*1061 BUFX4_8
*1062 BUFX4_11
*1063 BUFX4_10
*1064 BUFX4_13
*1065 BUFX4_12
*1066 BUFX4_7
*1067 BUFX4_9
*1068 address[1_bF_buf4]
*1069 BUFX4_9
*1070 MUX2X1_81
*1071 MUX2X1_177
*1072 MUX2X1_57
*1073 MUX2X1_9
*1074 MUX2X1_33
*1075 MUX2X1_105
*1076 MUX2X1_153
*1077 MUX2X1_129
*1078 address[1_bF_buf3]
*1079 BUFX4_10
*1080 MUX2X1_84
*1081 MUX2X1_132
*1082 MUX2X1_180
*1083 MUX2X1_156
*1084 MUX2X1_108
*1085 MUX2X1_36
*1086 MUX2X1_12
*1087 MUX2X1_60
*1088 address[1_bF_buf2]
*1089 BUFX4_11
*1090 MUX2X1_159
*1091 MUX2X1_135
*1092 MUX2X1_87
*1093 MUX2X1_183
*1094 MUX2X1_63
*1095 MUX2X1_39
*1096 MUX2X1_15
*1097 MUX2X1_111
*1098 address[1_bF_buf1]
*1099 BUFX4_12
*1100 MUX2X1_42
*1101 MUX2X1_66
*1102 MUX2X1_186
*1103 MUX2X1_18
*1104 MUX2X1_162
*1105 MUX2X1_114
*1106 MUX2X1_138
*1107 MUX2X1_90
*1108 address[1_bF_buf0]
*1109 BUFX4_13
*1110 MUX2X1_165
*1111 MUX2X1_117
*1112 MUX2X1_45
*1113 MUX2X1_141
*1114 MUX2X1_93
*1115 MUX2X1_189
*1116 MUX2X1_69
*1117 MUX2X1_21
*1118 _690_
*1119 NOR2X1_1
*1120 NAND2X1_161
*1121 AND2X2_3
*1122 NAND2X1_53
*1123 NAND2X1_125
*1124 NAND2X1_188
*1125 NAND2X1_8
*1126 NAND2X1_62
*1127 NAND2X1_89
*1128 _623_
*1129 NOR2X1_32
*1130 AND2X2_4
*1131 NAND2X1_35
*1132 NAND2X1_273
*1133 NAND2X1_134
*1134 NAND2X1_263
*1135 NAND2X1_243
*1136 AND2X2_1
*1137 NAND2X1_170
*1138 _635_
*1139 NOR2X1_33
*1140 NAND2X1_179
*1141 NAND2X1_253
*1142 NAND2X1_71
*1143 NAND2X1_26
*1144 NAND2X1_143
*1145 NAND2X1_17
*1146 NAND2X1_283
*1147 NAND2X1_107
*1148 _594_
*1149 NOR2X1_30
*1150 NAND2X1_224
*1151 AND2X2_2
*1152 NAND2X1_116
*1153 NAND2X1_98
*1154 NAND2X1_80
*1155 NAND2X1_233
*1156 NAND2X1_152
*1157 NAND2X1_44
*1158 _329_
*1159 INVX4_1
*1160 AOI21X1_30
*1161 AOI21X1_28
*1162 AOI21X1_32
*1163 AOI21X1_27
*1164 AOI21X1_25
*1165 AOI21X1_26
*1166 AOI21X1_31
*1167 AOI21X1_29
*1168 _331_
*1169 INVX4_2
*1170 OAI21X1_177
*1171 OAI21X1_182
*1172 OAI21X1_178
*1173 OAI21X1_180
*1174 OAI21X1_176
*1175 OAI21X1_181
*1176 OAI21X1_179
*1177 OAI21X1_175
*1178 _603__bF_buf4
*1179 BUFX4_1
*1180 OAI21X1_11
*1181 OAI21X1_163
*1182 AOI21X1_21
*1183 OAI21X1_211
*1184 AOI21X1_37
*1185 OAI21X1_203
*1186 OAI21X1_59
*1187 _603__bF_buf3
*1188 BUFX4_2
*1189 OAI21X1_227
*1190 OAI21X1_67
*1191 OAI21X1_75
*1192 AOI21X1_13
*1193 OAI21X1_219
*1194 OAI21X1_83
*1195 OAI21X1_195
*1196 _599__bF_buf4
*1197 BUFX4_14
*1198 OAI21X1_65
*1199 OAI21X1_193
*1200 OAI21X1_73
*1201 OAI21X1_185
*1202 OAI21X1_209
*1203 OAI21X1_57
*1204 OAI21X1_201
*1205 _599__bF_buf3
*1206 BUFX4_15
*1207 OAI21X1_41
*1208 AOI21X1_19
*1209 OAI21X1_137
*1210 OAI21X1_1
*1211 OAI21X1_33
*1212 OAI21X1_129
*1213 OAI21X1_161
*1214 _587__bF_buf4
*1215 BUFX4_19
*1216 AOI21X1_9
*1217 OAI21X1_55
*1218 OAI21X1_199
*1219 OAI21X1_15
*1220 OAI21X1_87
*1221 OAI21X1_191
*1222 OAI21X1_159
*1223 _587__bF_buf3
*1224 BUFX4_20
*1225 AOI21X1_1
*1226 OAI21X1_119
*1227 OAI21X1_47
*1228 OAI21X1_95
*1229 OAI21X1_183
*1230 OAI21X1_103
*1231 OAI21X1_215
*1232 _605__bF_buf4
*1233 BUFX4_24
*1234 OAI21X1_220
*1235 OAI21X1_172
*1236 AOI21X1_6
*1237 OAI21X1_20
*1238 AOI21X1_14
*1239 OAI21X1_164
*1240 OAI21X1_92
*1241 _605__bF_buf3
*1242 BUFX4_25
*1243 OAI21X1_228
*1244 OAI21X1_12
*1245 AOI21X1_22
*1246 AOI21X1_38
*1247 OAI21X1_76
*1248 OAI21X1_196
*1249 OAI21X1_212
*1250 _607__bF_buf4
*1251 BUFX4_40
*1252 OAI21X1_229
*1253 OAI21X1_77
*1254 OAI21X1_213
*1255 OAI21X1_197
*1256 OAI21X1_69
*1257 OAI21X1_205
*1258 AOI21X1_39
*1259 _607__bF_buf3
*1260 BUFX4_41
*1261 OAI21X1_37
*1262 OAI21X1_93
*1263 OAI21X1_21
*1264 OAI21X1_173
*1265 OAI21X1_189
*1266 AOI21X1_7
*1267 OAI21X1_29
*1268 _601__bF_buf4
*1269 BUFX4_45
*1270 OAI21X1_66
*1271 OAI21X1_74
*1272 OAI21X1_106
*1273 OAI21X1_26
*1274 OAI21X1_186
*1275 OAI21X1_210
*1276 OAI21X1_98
*1277 _601__bF_buf3
*1278 BUFX4_46
*1279 OAI21X1_130
*1280 OAI21X1_218
*1281 OAI21X1_82
*1282 AOI21X1_4
*1283 OAI21X1_138
*1284 OAI21X1_114
*1285 OAI21X1_122
*1286 _597__bF_buf4
*1287 BUFX4_50
*1288 OAI21X1_152
*1289 AOI21X1_10
*1290 AOI21X1_18
*1291 AOI21X1_34
*1292 OAI21X1_120
*1293 OAI21X1_128
*1294 OAI21X1_160
*1295 _597__bF_buf3
*1296 BUFX4_51
*1297 OAI21X1_8
*1298 AOI21X1_2
*1299 OAI21X1_80
*1300 OAI21X1_40
*1301 OAI21X1_104
*1302 OAI21X1_216
*1303 OAI21X1_232
*1304 _609__bF_buf4
*1305 BUFX4_55
*1306 AOI21X1_8
*1307 OAI21X1_174
*1308 OAI21X1_118
*1309 OAI21X1_86
*1310 OAI21X1_222
*1311 OAI21X1_134
*1312 OAI21X1_166
*1313 _609__bF_buf3
*1314 BUFX4_56
*1315 AOI21X1_24
*1316 OAI21X1_78
*1317 AOI21X1_40
*1318 OAI21X1_70
*1319 OAI21X1_38
*1320 OAI21X1_102
*1321 AOI21X1_16
*1322 _603__bF_buf2
*1323 BUFX4_3
*1324 OAI21X1_171
*1325 OAI21X1_19
*1326 OAI21X1_91
*1327 AOI21X1_5
*1328 OAI21X1_27
*1329 OAI21X1_187
*1330 _603__bF_buf1
*1331 BUFX4_4
*1332 OAI21X1_131
*1333 OAI21X1_107
*1334 OAI21X1_99
*1335 OAI21X1_115
*1336 OAI21X1_123
*1337 OAI21X1_51
*1338 _603__bF_buf0
*1339 BUFX4_5
*1340 OAI21X1_43
*1341 OAI21X1_155
*1342 OAI21X1_3
*1343 OAI21X1_147
*1344 OAI21X1_139
*1345 OAI21X1_35
*1346 _599__bF_buf2
*1347 BUFX4_16
*1348 OAI21X1_217
*1349 OAI21X1_25
*1350 AOI21X1_35
*1351 OAI21X1_97
*1352 OAI21X1_105
*1353 OAI21X1_81
*1354 _599__bF_buf1
*1355 BUFX4_17
*1356 OAI21X1_169
*1357 AOI21X1_3
*1358 AOI21X1_11
*1359 OAI21X1_113
*1360 OAI21X1_121
*1361 OAI21X1_49
*1362 _599__bF_buf0
*1363 BUFX4_18
*1364 OAI21X1_9
*1365 OAI21X1_153
*1366 OAI21X1_225
*1367 OAI21X1_145
*1368 OAI21X1_17
*1369 OAI21X1_89
*1370 _587__bF_buf2
*1371 BUFX4_21
*1372 OAI21X1_23
*1373 OAI21X1_79
*1374 AOI21X1_17
*1375 OAI21X1_63
*1376 OAI21X1_71
*1377 AOI21X1_33
*1378 _587__bF_buf1
*1379 BUFX4_22
*1380 OAI21X1_111
*1381 OAI21X1_223
*1382 OAI21X1_231
*1383 OAI21X1_7
*1384 OAI21X1_127
*1385 OAI21X1_31
*1386 _587__bF_buf0
*1387 BUFX4_23
*1388 OAI21X1_39
*1389 OAI21X1_167
*1390 OAI21X1_151
*1391 OAI21X1_135
*1392 OAI21X1_143
*1393 OAI21X1_207
*1394 _605__bF_buf2
*1395 BUFX4_26
*1396 OAI21X1_60
*1397 OAI21X1_68
*1398 OAI21X1_204
*1399 OAI21X1_4
*1400 OAI21X1_84
*1401 OAI21X1_44
*1402 _605__bF_buf1
*1403 BUFX4_27
*1404 OAI21X1_36
*1405 OAI21X1_124
*1406 OAI21X1_116
*1407 OAI21X1_148
*1408 OAI21X1_156
*1409 OAI21X1_132
*1410 _605__bF_buf0
*1411 BUFX4_28
*1412 OAI21X1_52
*1413 OAI21X1_140
*1414 OAI21X1_100
*1415 OAI21X1_108
*1416 OAI21X1_28
*1417 OAI21X1_188
*1418 _607__bF_buf2
*1419 BUFX4_42
*1420 AOI21X1_23
*1421 OAI21X1_221
*1422 OAI21X1_61
*1423 OAI21X1_45
*1424 OAI21X1_53
*1425 OAI21X1_165
*1426 _607__bF_buf1
*1427 BUFX4_43
*1428 OAI21X1_5
*1429 OAI21X1_149
*1430 OAI21X1_101
*1431 AOI21X1_15
*1432 OAI21X1_109
*1433 OAI21X1_13
*1434 _607__bF_buf0
*1435 BUFX4_44
*1436 OAI21X1_141
*1437 OAI21X1_85
*1438 OAI21X1_125
*1439 OAI21X1_157
*1440 OAI21X1_133
*1441 OAI21X1_117
*1442 _601__bF_buf2
*1443 BUFX4_47
*1444 OAI21X1_2
*1445 OAI21X1_34
*1446 OAI21X1_50
*1447 OAI21X1_58
*1448 AOI21X1_20
*1449 AOI21X1_36
*1450 _601__bF_buf1
*1451 BUFX4_48
*1452 OAI21X1_154
*1453 OAI21X1_226
*1454 OAI21X1_10
*1455 OAI21X1_202
*1456 OAI21X1_194
*1457 OAI21X1_146
*1458 _601__bF_buf0
*1459 BUFX4_49
*1460 OAI21X1_42
*1461 OAI21X1_170
*1462 OAI21X1_90
*1463 OAI21X1_18
*1464 AOI21X1_12
*1465 OAI21X1_162
*1466 _597__bF_buf2
*1467 BUFX4_52
*1468 OAI21X1_168
*1469 OAI21X1_88
*1470 OAI21X1_224
*1471 OAI21X1_16
*1472 OAI21X1_184
*1473 OAI21X1_24
*1474 _597__bF_buf1
*1475 BUFX4_53
*1476 OAI21X1_112
*1477 OAI21X1_136
*1478 OAI21X1_32
*1479 OAI21X1_144
*1480 OAI21X1_96
*1481 OAI21X1_48
*1482 _597__bF_buf0
*1483 BUFX4_54
*1484 OAI21X1_56
*1485 OAI21X1_208
*1486 OAI21X1_192
*1487 OAI21X1_72
*1488 OAI21X1_64
*1489 OAI21X1_200
*1490 _609__bF_buf2
*1491 BUFX4_57
*1492 OAI21X1_150
*1493 OAI21X1_190
*1494 OAI21X1_14
*1495 OAI21X1_214
*1496 OAI21X1_198
*1497 OAI21X1_30
*1498 _609__bF_buf1
*1499 BUFX4_58
*1500 OAI21X1_46
*1501 OAI21X1_6
*1502 OAI21X1_206
*1503 OAI21X1_158
*1504 OAI21X1_230
*1505 OAI21X1_22
*1506 _609__bF_buf0
*1507 BUFX4_59
*1508 OAI21X1_54
*1509 OAI21X1_126
*1510 OAI21X1_142
*1511 OAI21X1_110
*1512 OAI21X1_62
*1513 OAI21X1_94
*1514 clk_bF_buf8_bF_buf3
*1515 CLKBUF1_1
*1516 DFFPOSX1_248
*1517 DFFPOSX1_40
*1518 DFFPOSX1_264
*1519 DFFPOSX1_152
*1520 DFFPOSX1_200
*1521 clk_bF_buf9_bF_buf3
*1522 CLKBUF1_5
*1523 DFFPOSX1_119
*1524 DFFPOSX1_135
*1525 DFFPOSX1_23
*1526 DFFPOSX1_55
*1527 DFFPOSX1_151
*1528 clk_bF_buf10_bF_buf3
*1529 CLKBUF1_9
*1530 DFFPOSX1_102
*1531 DFFPOSX1_38
*1532 DFFPOSX1_54
*1533 DFFPOSX1_118
*1534 DFFPOSX1_134
*1535 clk_bF_buf11_bF_buf3
*1536 CLKBUF1_13
*1537 DFFPOSX1_181
*1538 DFFPOSX1_197
*1539 DFFPOSX1_117
*1540 DFFPOSX1_213
*1541 DFFPOSX1_229
*1542 clk_bF_buf12_bF_buf3
*1543 CLKBUF1_17
*1544 DFFPOSX1_36
*1545 DFFPOSX1_212
*1546 DFFPOSX1_196
*1547 DFFPOSX1_148
*1548 DFFPOSX1_52
*1549 clk_bF_buf13_bF_buf3
*1550 CLKBUF1_21
*1551 DFFPOSX1_195
*1552 DFFPOSX1_99
*1553 DFFPOSX1_211
*1554 DFFPOSX1_115
*1555 DFFPOSX1_163
*1556 clk_bF_buf14_bF_buf3
*1557 CLKBUF1_25
*1558 DFFPOSX1_178
*1559 DFFPOSX1_66
*1560 DFFPOSX1_114
*1561 DFFPOSX1_34
*1562 DFFPOSX1_210
*1563 clk_bF_buf15_bF_buf3
*1564 CLKBUF1_29
*1565 DFFPOSX1_81
*1566 DFFPOSX1_17
*1567 DFFPOSX1_129
*1568 DFFPOSX1_225
*1569 DFFPOSX1_161
*1570 _603_
*1571 INVX8_5
*1572 BUFX4_3
*1573 BUFX4_1
*1574 BUFX4_2
*1575 BUFX4_5
*1576 BUFX4_4
*1577 _599_
*1578 INVX8_3
*1579 BUFX4_16
*1580 BUFX4_14
*1581 BUFX4_17
*1582 BUFX4_18
*1583 BUFX4_15
*1584 _587_
*1585 INVX8_1
*1586 BUFX4_21
*1587 BUFX4_23
*1588 BUFX4_22
*1589 BUFX4_20
*1590 BUFX4_19
*1591 _605_
*1592 INVX8_6
*1593 BUFX4_27
*1594 BUFX4_28
*1595 BUFX4_25
*1596 BUFX4_26
*1597 BUFX4_24
*1598 _607_
*1599 INVX8_7
*1600 BUFX4_41
*1601 BUFX4_43
*1602 BUFX4_40
*1603 BUFX4_42
*1604 BUFX4_44
*1605 _601_
*1606 INVX8_4
*1607 BUFX4_46
*1608 BUFX4_49
*1609 BUFX4_47
*1610 BUFX4_48
*1611 BUFX4_45
*1612 _597_
*1613 INVX8_2
*1614 BUFX4_52
*1615 BUFX4_51
*1616 BUFX4_50
*1617 BUFX4_53
*1618 BUFX4_54
*1619 _609_
*1620 INVX8_8
*1621 BUFX4_58
*1622 BUFX4_55
*1623 BUFX4_59
*1624 BUFX4_56
*1625 BUFX4_57
*1626 address[2]
*1627 NOR2X1_29
*1628 INVX2_1
*1629 NOR2X1_34
*1630 NOR2X1_20
*1631 NOR2X1_2
*1632 clk_bF_buf8
*1633 CLKBUF1_40
*1634 DFFPOSX1_154
*1635 DFFPOSX1_10
*1636 DFFPOSX1_26
*1637 CLKBUF1_26
*1638 clk_bF_buf8_bF_buf2
*1639 CLKBUF1_2
*1640 DFFPOSX1_104
*1641 DFFPOSX1_184
*1642 DFFPOSX1_216
*1643 DFFPOSX1_168
*1644 clk_bF_buf8_bF_buf1
*1645 CLKBUF1_3
*1646 DFFPOSX1_232
*1647 DFFPOSX1_56
*1648 DFFPOSX1_72
*1649 DFFPOSX1_8
*1650 clk_bF_buf8_bF_buf0
*1651 CLKBUF1_4
*1652 DFFPOSX1_120
*1653 DFFPOSX1_88
*1654 DFFPOSX1_24
*1655 DFFPOSX1_136
*1656 clk_bF_buf9
*1657 CLKBUF1_39
*1658 DFFPOSX1_143
*1659 CLKBUF1_18
*1660 DFFPOSX1_12
*1661 CLKBUF1_10
*1662 clk_bF_buf9_bF_buf2
*1663 CLKBUF1_6
*1664 DFFPOSX1_183
*1665 DFFPOSX1_103
*1666 DFFPOSX1_71
*1667 DFFPOSX1_263
*1668 clk_bF_buf9_bF_buf1
*1669 CLKBUF1_7
*1670 DFFPOSX1_231
*1671 DFFPOSX1_199
*1672 DFFPOSX1_215
*1673 DFFPOSX1_39
*1674 clk_bF_buf9_bF_buf0
*1675 CLKBUF1_8
*1676 DFFPOSX1_7
*1677 DFFPOSX1_247
*1678 DFFPOSX1_87
*1679 DFFPOSX1_167
*1680 clk_bF_buf10
*1681 CLKBUF1_38
*1682 DFFPOSX1_92
*1683 DFFPOSX1_28
*1684 DFFPOSX1_202
*1685 DFFPOSX1_234
*1686 clk_bF_buf10_bF_buf2
*1687 CLKBUF1_10
*1688 DFFPOSX1_262
*1689 DFFPOSX1_70
*1690 DFFPOSX1_22
*1691 DFFPOSX1_150
*1692 clk_bF_buf10_bF_buf1
*1693 CLKBUF1_11
*1694 DFFPOSX1_198
*1695 DFFPOSX1_166
*1696 DFFPOSX1_86
*1697 DFFPOSX1_246
*1698 clk_bF_buf10_bF_buf0
*1699 CLKBUF1_12
*1700 DFFPOSX1_182
*1701 DFFPOSX1_230
*1702 DFFPOSX1_6
*1703 DFFPOSX1_214
*1704 clk_bF_buf11
*1705 CLKBUF1_37
*1706 CLKBUF1_8
*1707 DFFPOSX1_93
*1708 DFFPOSX1_77
*1709 DFFPOSX1_79
*1710 clk_bF_buf11_bF_buf2
*1711 CLKBUF1_14
*1712 DFFPOSX1_245
*1713 DFFPOSX1_261
*1714 DFFPOSX1_85
*1715 DFFPOSX1_69
*1716 clk_bF_buf11_bF_buf1
*1717 CLKBUF1_15
*1718 DFFPOSX1_149
*1719 DFFPOSX1_101
*1720 DFFPOSX1_37
*1721 DFFPOSX1_53
*1722 clk_bF_buf11_bF_buf0
*1723 CLKBUF1_16
*1724 DFFPOSX1_5
*1725 DFFPOSX1_165
*1726 DFFPOSX1_133
*1727 DFFPOSX1_21
*1728 clk_bF_buf12
*1729 CLKBUF1_36
*1730 CLKBUF1_4
*1731 DFFPOSX1_64
*1732 DFFPOSX1_76
*1733 CLKBUF1_17
*1734 clk_bF_buf12_bF_buf2
*1735 CLKBUF1_18
*1736 DFFPOSX1_4
*1737 DFFPOSX1_180
*1738 DFFPOSX1_20
*1739 DFFPOSX1_68
*1740 clk_bF_buf12_bF_buf1
*1741 CLKBUF1_19
*1742 DFFPOSX1_244
*1743 DFFPOSX1_228
*1744 DFFPOSX1_260
*1745 DFFPOSX1_116
*1746 clk_bF_buf12_bF_buf0
*1747 CLKBUF1_20
*1748 DFFPOSX1_100
*1749 DFFPOSX1_164
*1750 DFFPOSX1_132
*1751 DFFPOSX1_84
*1752 clk_bF_buf13
*1753 CLKBUF1_35
*1754 DFFPOSX1_109
*1755 DFFPOSX1_125
*1756 DFFPOSX1_205
*1757 CLKBUF1_13
*1758 clk_bF_buf13_bF_buf2
*1759 CLKBUF1_22
*1760 DFFPOSX1_3
*1761 DFFPOSX1_147
*1762 DFFPOSX1_131
*1763 DFFPOSX1_19
*1764 clk_bF_buf13_bF_buf1
*1765 CLKBUF1_23
*1766 DFFPOSX1_35
*1767 DFFPOSX1_179
*1768 DFFPOSX1_259
*1769 DFFPOSX1_243
*1770 clk_bF_buf13_bF_buf0
*1771 CLKBUF1_24
*1772 DFFPOSX1_67
*1773 DFFPOSX1_227
*1774 DFFPOSX1_83
*1775 DFFPOSX1_51
*1776 clk_bF_buf14
*1777 CLKBUF1_34
*1778 CLKBUF1_1
*1779 DFFPOSX1_128
*1780 DFFPOSX1_112
*1781 DFFPOSX1_144
*1782 clk_bF_buf14_bF_buf2