*SPICE netlist created from BLIF module ram32_sram by blif2BSpice
.include /usr/local/share/qflow/tech/osu018/osu018_stdcells.sp
.subckt ram32_sram vdd gnd enable clk r_w datain[0] datain[1] datain[2] datain[3] datain[4] datain[5] datain[6] datain[7] address[0] address[1] address[2] address[3] address[4] dataout[0] dataout[1] dataout[2] dataout[3] dataout[4] dataout[5] dataout[6] dataout[7] 
XCLKBUF1_1 clk_bF$buf14 vdd gnd clk_bF$buf8_bF$buf3 CLKBUF1
XCLKBUF1_2 clk_bF$buf4 vdd gnd clk_bF$buf8_bF$buf2 CLKBUF1
XCLKBUF1_3 clk_bF$buf4 vdd gnd clk_bF$buf8_bF$buf1 CLKBUF1
XCLKBUF1_4 clk_bF$buf12 vdd gnd clk_bF$buf8_bF$buf0 CLKBUF1
XCLKBUF1_5 clk_bF$buf1 vdd gnd clk_bF$buf9_bF$buf3 CLKBUF1
XCLKBUF1_6 clk_bF$buf2 vdd gnd clk_bF$buf9_bF$buf2 CLKBUF1
XCLKBUF1_7 clk_bF$buf1 vdd gnd clk_bF$buf9_bF$buf1 CLKBUF1
XCLKBUF1_8 clk_bF$buf11 vdd gnd clk_bF$buf9_bF$buf0 CLKBUF1
XCLKBUF1_9 clk_bF$buf3 vdd gnd clk_bF$buf10_bF$buf3 CLKBUF1
XCLKBUF1_10 clk_bF$buf9 vdd gnd clk_bF$buf10_bF$buf2 CLKBUF1
XCLKBUF1_11 clk_bF$buf3 vdd gnd clk_bF$buf10_bF$buf1 CLKBUF1
XCLKBUF1_12 clk_bF$buf3 vdd gnd clk_bF$buf10_bF$buf0 CLKBUF1
XCLKBUF1_13 clk_bF$buf13 vdd gnd clk_bF$buf11_bF$buf3 CLKBUF1
XCLKBUF1_14 clk_bF$buf2 vdd gnd clk_bF$buf11_bF$buf2 CLKBUF1
XCLKBUF1_15 clk_bF$buf6 vdd gnd clk_bF$buf11_bF$buf1 CLKBUF1
XCLKBUF1_16 clk_bF$buf2 vdd gnd clk_bF$buf11_bF$buf0 CLKBUF1
XCLKBUF1_17 clk_bF$buf12 vdd gnd clk_bF$buf12_bF$buf3 CLKBUF1
XCLKBUF1_18 clk_bF$buf9 vdd gnd clk_bF$buf12_bF$buf2 CLKBUF1
XCLKBUF1_19 clk_bF$buf5 vdd gnd clk_bF$buf12_bF$buf1 CLKBUF1
XCLKBUF1_20 clk_bF$buf5 vdd gnd clk_bF$buf12_bF$buf0 CLKBUF1
XCLKBUF1_21 clk_bF$buf0 vdd gnd clk_bF$buf13_bF$buf3 CLKBUF1
XCLKBUF1_22 clk_bF$buf7 vdd gnd clk_bF$buf13_bF$buf2 CLKBUF1
XCLKBUF1_23 clk_bF$buf0 vdd gnd clk_bF$buf13_bF$buf1 CLKBUF1
XCLKBUF1_24 clk_bF$buf0 vdd gnd clk_bF$buf13_bF$buf0 CLKBUF1
XCLKBUF1_25 clk_bF$buf6 vdd gnd clk_bF$buf14_bF$buf3 CLKBUF1
XCLKBUF1_26 clk_bF$buf8 vdd gnd clk_bF$buf14_bF$buf2 CLKBUF1
XCLKBUF1_27 clk_bF$buf6 vdd gnd clk_bF$buf14_bF$buf1 CLKBUF1
XCLKBUF1_28 clk_bF$buf7 vdd gnd clk_bF$buf14_bF$buf0 CLKBUF1
XCLKBUF1_29 clk_bF$buf7 vdd gnd clk_bF$buf15_bF$buf3 CLKBUF1
XCLKBUF1_30 clk_bF$buf7 vdd gnd clk_bF$buf15_bF$buf2 CLKBUF1
XCLKBUF1_31 clk_bF$buf6 vdd gnd clk_bF$buf15_bF$buf1 CLKBUF1
XCLKBUF1_32 clk_bF$buf7 vdd gnd clk_bF$buf15_bF$buf0 CLKBUF1
XBUFX4_1 vdd gnd _603_ _603__bF$buf4 BUFX4
XBUFX4_2 vdd gnd _603_ _603__bF$buf3 BUFX4
XBUFX4_3 vdd gnd _603_ _603__bF$buf2 BUFX4
XBUFX4_4 vdd gnd _603_ _603__bF$buf1 BUFX4
XBUFX4_5 vdd gnd _603_ _603__bF$buf0 BUFX4
XBUFX4_6 vdd gnd address[1] address[1_bF$buf7] BUFX4
XBUFX4_7 vdd gnd address[1] address[1_bF$buf6] BUFX4
XBUFX4_8 vdd gnd address[1] address[1_bF$buf5] BUFX4
XBUFX4_9 vdd gnd address[1] address[1_bF$buf4] BUFX4
XBUFX4_10 vdd gnd address[1] address[1_bF$buf3] BUFX4
XBUFX4_11 vdd gnd address[1] address[1_bF$buf2] BUFX4
XBUFX4_12 vdd gnd address[1] address[1_bF$buf1] BUFX4
XBUFX4_13 vdd gnd address[1] address[1_bF$buf0] BUFX4
XCLKBUF1_33 clk vdd gnd clk_bF$buf15 CLKBUF1
XCLKBUF1_34 clk vdd gnd clk_bF$buf14 CLKBUF1
XCLKBUF1_35 clk vdd gnd clk_bF$buf13 CLKBUF1
XCLKBUF1_36 clk vdd gnd clk_bF$buf12 CLKBUF1
XCLKBUF1_37 clk vdd gnd clk_bF$buf11 CLKBUF1
XCLKBUF1_38 clk vdd gnd clk_bF$buf10 CLKBUF1
XCLKBUF1_39 clk vdd gnd clk_bF$buf9 CLKBUF1
XCLKBUF1_40 clk vdd gnd clk_bF$buf8 CLKBUF1
XCLKBUF1_41 clk vdd gnd clk_bF$buf7 CLKBUF1
XCLKBUF1_42 clk vdd gnd clk_bF$buf6 CLKBUF1
XCLKBUF1_43 clk vdd gnd clk_bF$buf5 CLKBUF1
XCLKBUF1_44 clk vdd gnd clk_bF$buf4 CLKBUF1
XCLKBUF1_45 clk vdd gnd clk_bF$buf3 CLKBUF1
XCLKBUF1_46 clk vdd gnd clk_bF$buf2 CLKBUF1
XCLKBUF1_47 clk vdd gnd clk_bF$buf1 CLKBUF1
XCLKBUF1_48 clk vdd gnd clk_bF$buf0 CLKBUF1
XBUFX4_14 vdd gnd _599_ _599__bF$buf4 BUFX4
XBUFX4_15 vdd gnd _599_ _599__bF$buf3 BUFX4
XBUFX4_16 vdd gnd _599_ _599__bF$buf2 BUFX4
XBUFX4_17 vdd gnd _599_ _599__bF$buf1 BUFX4
XBUFX4_18 vdd gnd _599_ _599__bF$buf0 BUFX4
XBUFX4_19 vdd gnd _587_ _587__bF$buf4 BUFX4
XBUFX4_20 vdd gnd _587_ _587__bF$buf3 BUFX4
XBUFX4_21 vdd gnd _587_ _587__bF$buf2 BUFX4
XBUFX4_22 vdd gnd _587_ _587__bF$buf1 BUFX4
XBUFX4_23 vdd gnd _587_ _587__bF$buf0 BUFX4
XBUFX4_24 vdd gnd _605_ _605__bF$buf4 BUFX4
XBUFX4_25 vdd gnd _605_ _605__bF$buf3 BUFX4
XBUFX4_26 vdd gnd _605_ _605__bF$buf2 BUFX4
XBUFX4_27 vdd gnd _605_ _605__bF$buf1 BUFX4
XBUFX4_28 vdd gnd _605_ _605__bF$buf0 BUFX4
XBUFX4_29 vdd gnd address[0] address[0_bF$buf10] BUFX4
XBUFX4_30 vdd gnd address[0] address[0_bF$buf9] BUFX4
XBUFX4_31 vdd gnd address[0] address[0_bF$buf8] BUFX4
XBUFX4_32 vdd gnd address[0] address[0_bF$buf7] BUFX4
XBUFX4_33 vdd gnd address[0] address[0_bF$buf6] BUFX4
XBUFX4_34 vdd gnd address[0] address[0_bF$buf5] BUFX4
XBUFX4_35 vdd gnd address[0] address[0_bF$buf4] BUFX4
XBUFX4_36 vdd gnd address[0] address[0_bF$buf3] BUFX4
XBUFX4_37 vdd gnd address[0] address[0_bF$buf2] BUFX4
XBUFX4_38 vdd gnd address[0] address[0_bF$buf1] BUFX4
XBUFX4_39 vdd gnd address[0] address[0_bF$buf0] BUFX4
XBUFX4_40 vdd gnd _607_ _607__bF$buf4 BUFX4
XBUFX4_41 vdd gnd _607_ _607__bF$buf3 BUFX4
XBUFX4_42 vdd gnd _607_ _607__bF$buf2 BUFX4
XBUFX4_43 vdd gnd _607_ _607__bF$buf1 BUFX4
XBUFX4_44 vdd gnd _607_ _607__bF$buf0 BUFX4
XBUFX4_45 vdd gnd _601_ _601__bF$buf4 BUFX4
XBUFX4_46 vdd gnd _601_ _601__bF$buf3 BUFX4
XBUFX4_47 vdd gnd _601_ _601__bF$buf2 BUFX4
XBUFX4_48 vdd gnd _601_ _601__bF$buf1 BUFX4
XBUFX4_49 vdd gnd _601_ _601__bF$buf0 BUFX4
XBUFX4_50 vdd gnd _597_ _597__bF$buf4 BUFX4
XBUFX4_51 vdd gnd _597_ _597__bF$buf3 BUFX4
XBUFX4_52 vdd gnd _597_ _597__bF$buf2 BUFX4
XBUFX4_53 vdd gnd _597_ _597__bF$buf1 BUFX4
XBUFX4_54 vdd gnd _597_ _597__bF$buf0 BUFX4
XBUFX4_55 vdd gnd _609_ _609__bF$buf4 BUFX4
XBUFX4_56 vdd gnd _609_ _609__bF$buf3 BUFX4
XBUFX4_57 vdd gnd _609_ _609__bF$buf2 BUFX4
XBUFX4_58 vdd gnd _609_ _609__bF$buf1 BUFX4
XBUFX4_59 vdd gnd _609_ _609__bF$buf0 BUFX4
XNAND2X1_1 vdd _683_ gnd Mem[4][2] _680_ NAND2X1
XOAI21X1_1 gnd vdd _599__bF$buf3 _680_ _58_ _683_ OAI21X1
XNAND2X1_2 vdd _684_ gnd Mem[4][3] _680_ NAND2X1
XOAI21X1_2 gnd vdd _601__bF$buf2 _680_ _59_ _684_ OAI21X1
XNAND2X1_3 vdd _685_ gnd Mem[4][4] _680_ NAND2X1
XOAI21X1_3 gnd vdd _603__bF$buf0 _680_ _60_ _685_ OAI21X1
XNAND2X1_4 vdd _686_ gnd Mem[4][5] _680_ NAND2X1
XOAI21X1_4 gnd vdd _605__bF$buf2 _680_ _61_ _686_ OAI21X1
XNAND2X1_5 vdd _687_ gnd Mem[4][6] _680_ NAND2X1
XOAI21X1_5 gnd vdd _607__bF$buf1 _680_ _62_ _687_ OAI21X1
XNAND2X1_6 vdd _688_ gnd Mem[4][7] _680_ NAND2X1
XOAI21X1_6 gnd vdd _609__bF$buf1 _680_ _63_ _688_ OAI21X1
XNAND2X1_7 vdd _689_ gnd address[1_bF$buf7] _633_ NAND2X1
XNOR2X1_1 vdd _689_ gnd _690_ _591_ NOR2X1
XNAND2X1_8 vdd _691_ gnd _590_ _690_ NAND2X1
XNAND2X1_9 vdd _692_ gnd Mem[10][0] _691_ NAND2X1
XOAI21X1_7 gnd vdd _587__bF$buf1 _691_ _64_ _692_ OAI21X1
XNAND2X1_10 vdd _693_ gnd Mem[10][1] _691_ NAND2X1
XOAI21X1_8 gnd vdd _597__bF$buf3 _691_ _65_ _693_ OAI21X1
XNAND2X1_11 vdd _694_ gnd Mem[10][2] _691_ NAND2X1
XOAI21X1_9 gnd vdd _599__bF$buf0 _691_ _66_ _694_ OAI21X1
XNAND2X1_12 vdd _695_ gnd Mem[10][3] _691_ NAND2X1
XOAI21X1_10 gnd vdd _601__bF$buf1 _691_ _67_ _695_ OAI21X1
XNAND2X1_13 vdd _696_ gnd Mem[10][4] _691_ NAND2X1
XOAI21X1_11 gnd vdd _603__bF$buf4 _691_ _68_ _696_ OAI21X1
XNAND2X1_14 vdd _697_ gnd Mem[10][5] _691_ NAND2X1
XOAI21X1_12 gnd vdd _605__bF$buf3 _691_ _69_ _697_ OAI21X1
XNAND2X1_15 vdd _698_ gnd Mem[10][6] _691_ NAND2X1
XOAI21X1_13 gnd vdd _607__bF$buf1 _691_ _70_ _698_ OAI21X1
XNAND2X1_16 vdd _699_ gnd Mem[10][7] _691_ NAND2X1
XOAI21X1_14 gnd vdd _609__bF$buf2 _691_ _71_ _699_ OAI21X1
XNOR2X1_2 vdd _678_ gnd _700_ address[2] NOR2X1
XAND2X2_1 vdd gnd _700_ _623_ _701_ AND2X2
XNOR2X1_3 vdd _701_ gnd _702_ Mem[3][0] NOR2X1
XAOI21X1_1 gnd vdd _587__bF$buf3 _701_ _72_ _702_ AOI21X1
XNOR2X1_4 vdd _701_ gnd _703_ Mem[3][1] NOR2X1
XAOI21X1_2 gnd vdd _597__bF$buf3 _701_ _73_ _703_ AOI21X1
XNOR2X1_5 vdd _701_ gnd _704_ Mem[3][2] NOR2X1
XAOI21X1_3 gnd vdd _599__bF$buf1 _701_ _74_ _704_ AOI21X1
XNOR2X1_6 vdd _701_ gnd _705_ Mem[3][3] NOR2X1
XAOI21X1_4 gnd vdd _601__bF$buf3 _701_ _75_ _705_ AOI21X1
XNOR2X1_7 vdd _701_ gnd _706_ Mem[3][4] NOR2X1
XAOI21X1_5 gnd vdd _603__bF$buf2 _701_ _76_ _706_ AOI21X1
XNOR2X1_8 vdd _701_ gnd _707_ Mem[3][5] NOR2X1
XAOI21X1_6 gnd vdd _605__bF$buf4 _701_ _77_ _707_ AOI21X1
XNOR2X1_9 vdd _701_ gnd _708_ Mem[3][6] NOR2X1
XAOI21X1_7 gnd vdd _607__bF$buf3 _701_ _78_ _708_ AOI21X1
XNOR2X1_10 vdd _701_ gnd _709_ Mem[3][7] NOR2X1
XAOI21X1_8 gnd vdd _609__bF$buf4 _701_ _79_ _709_ AOI21X1
XNAND2X1_17 vdd _710_ gnd _635_ _700_ NAND2X1
XNAND2X1_18 vdd _711_ gnd Mem[0][0] _710_ NAND2X1
XOAI21X1_15 gnd vdd _587__bF$buf4 _710_ _80_ _711_ OAI21X1
XNAND2X1_19 vdd _712_ gnd Mem[0][1] _710_ NAND2X1
XOAI21X1_16 gnd vdd _597__bF$buf2 _710_ _81_ _712_ OAI21X1
XNAND2X1_20 vdd _713_ gnd Mem[0][2] _710_ NAND2X1
XOAI21X1_17 gnd vdd _599__bF$buf0 _710_ _82_ _713_ OAI21X1
XNAND2X1_21 vdd _714_ gnd Mem[0][3] _710_ NAND2X1
XOAI21X1_18 gnd vdd _601__bF$buf0 _710_ _83_ _714_ OAI21X1
XNAND2X1_22 vdd _715_ gnd Mem[0][4] _710_ NAND2X1
XOAI21X1_19 gnd vdd _603__bF$buf2 _710_ _84_ _715_ OAI21X1
XNAND2X1_23 vdd _716_ gnd Mem[0][5] _710_ NAND2X1
XOAI21X1_20 gnd vdd _605__bF$buf4 _710_ _85_ _716_ OAI21X1
XNAND2X1_24 vdd _717_ gnd Mem[0][6] _710_ NAND2X1
XOAI21X1_21 gnd vdd _607__bF$buf3 _710_ _86_ _717_ OAI21X1
XNAND2X1_25 vdd _718_ gnd Mem[0][7] _710_ NAND2X1
XOAI21X1_22 gnd vdd _609__bF$buf1 _710_ _87_ _718_ OAI21X1
XNAND2X1_26 vdd _719_ gnd _590_ _635_ NAND2X1
XNAND2X1_27 vdd _720_ gnd Mem[8][0] _719_ NAND2X1
XOAI21X1_23 gnd vdd _587__bF$buf2 _719_ _88_ _720_ OAI21X1
XNAND2X1_28 vdd _721_ gnd Mem[8][1] _719_ NAND2X1
XOAI21X1_24 gnd vdd _597__bF$buf2 _719_ _89_ _721_ OAI21X1
XNAND2X1_29 vdd _722_ gnd Mem[8][2] _719_ NAND2X1
XOAI21X1_25 gnd vdd _599__bF$buf2 _719_ _90_ _722_ OAI21X1
XNAND2X1_30 vdd _723_ gnd Mem[8][3] _719_ NAND2X1
XOAI21X1_26 gnd vdd _601__bF$buf4 _719_ _91_ _723_ OAI21X1
XNAND2X1_31 vdd _724_ gnd Mem[8][4] _719_ NAND2X1
XOAI21X1_27 gnd vdd _603__bF$buf2 _719_ _92_ _724_ OAI21X1
XNAND2X1_32 vdd _725_ gnd Mem[8][5] _719_ NAND2X1
XOAI21X1_28 gnd vdd _605__bF$buf0 _719_ _93_ _725_ OAI21X1
XNAND2X1_33 vdd _726_ gnd Mem[8][6] _719_ NAND2X1
XOAI21X1_29 gnd vdd _607__bF$buf3 _719_ _94_ _726_ OAI21X1
XNAND2X1_34 vdd _727_ gnd Mem[8][7] _719_ NAND2X1
XOAI21X1_30 gnd vdd _609__bF$buf2 _719_ _95_ _727_ OAI21X1
XAND2X2_2 vdd gnd _659_ _594_ _728_ AND2X2
XNOR2X1_11 vdd _728_ gnd _729_ Mem[29][0] NOR2X1
XAOI21X1_9 gnd vdd _587__bF$buf4 _728_ _96_ _729_ AOI21X1
XNOR2X1_12 vdd _728_ gnd _730_ Mem[29][1] NOR2X1
XAOI21X1_10 gnd vdd _597__bF$buf4 _728_ _97_ _730_ AOI21X1
XNOR2X1_13 vdd _728_ gnd _731_ Mem[29][2] NOR2X1
XAOI21X1_11 gnd vdd _599__bF$buf1 _728_ _98_ _731_ AOI21X1
XNOR2X1_14 vdd _728_ gnd _732_ Mem[29][3] NOR2X1
XAOI21X1_12 gnd vdd _601__bF$buf0 _728_ _99_ _732_ AOI21X1
XNOR2X1_15 vdd _728_ gnd _733_ Mem[29][4] NOR2X1
XAOI21X1_13 gnd vdd _603__bF$buf3 _728_ _100_ _733_ AOI21X1
XNOR2X1_16 vdd _728_ gnd _734_ Mem[29][5] NOR2X1
XAOI21X1_14 gnd vdd _605__bF$buf4 _728_ _101_ _734_ AOI21X1
XNOR2X1_17 vdd _728_ gnd _735_ Mem[29][6] NOR2X1
XAOI21X1_15 gnd vdd _607__bF$buf1 _728_ _102_ _735_ AOI21X1
XNOR2X1_18 vdd _728_ gnd _736_ Mem[29][7] NOR2X1
XAOI21X1_16 gnd vdd _609__bF$buf3 _728_ _103_ _736_ AOI21X1
XNAND2X1_35 vdd _737_ gnd _623_ _679_ NAND2X1
XNAND2X1_36 vdd _738_ gnd Mem[7][0] _737_ NAND2X1
XOAI21X1_31 gnd vdd _587__bF$buf1 _737_ _104_ _738_ OAI21X1
XNAND2X1_37 vdd _739_ gnd Mem[7][1] _737_ NAND2X1
XOAI21X1_32 gnd vdd _597__bF$buf1 _737_ _105_ _739_ OAI21X1
XNAND2X1_38 vdd _740_ gnd Mem[7][2] _737_ NAND2X1
XOAI21X1_33 gnd vdd _599__bF$buf3 _737_ _106_ _740_ OAI21X1
XNAND2X1_39 vdd _741_ gnd Mem[7][3] _737_ NAND2X1
XOAI21X1_34 gnd vdd _601__bF$buf2 _737_ _107_ _741_ OAI21X1
XNAND2X1_40 vdd _742_ gnd Mem[7][4] _737_ NAND2X1
XOAI21X1_35 gnd vdd _603__bF$buf0 _737_ _108_ _742_ OAI21X1
XNAND2X1_41 vdd _743_ gnd Mem[7][5] _737_ NAND2X1
XOAI21X1_36 gnd vdd _605__bF$buf1 _737_ _109_ _743_ OAI21X1
XNAND2X1_42 vdd _744_ gnd Mem[7][6] _737_ NAND2X1
XOAI21X1_37 gnd vdd _607__bF$buf3 _737_ _110_ _744_ OAI21X1
XNAND2X1_43 vdd _745_ gnd Mem[7][7] _737_ NAND2X1
XOAI21X1_38 gnd vdd _609__bF$buf3 _737_ _111_ _745_ OAI21X1
XNAND2X1_44 vdd _746_ gnd _594_ _679_ NAND2X1
XNAND2X1_45 vdd _747_ gnd Mem[5][0] _746_ NAND2X1
XOAI21X1_39 gnd vdd _587__bF$buf0 _746_ _112_ _747_ OAI21X1
XNAND2X1_46 vdd _748_ gnd Mem[5][1] _746_ NAND2X1
XOAI21X1_40 gnd vdd _597__bF$buf3 _746_ _113_ _748_ OAI21X1
XNAND2X1_47 vdd _749_ gnd Mem[5][2] _746_ NAND2X1
XOAI21X1_41 gnd vdd _599__bF$buf3 _746_ _114_ _749_ OAI21X1
XNAND2X1_48 vdd _750_ gnd Mem[5][3] _746_ NAND2X1
XOAI21X1_42 gnd vdd _601__bF$buf0 _746_ _115_ _750_ OAI21X1
XNAND2X1_49 vdd _751_ gnd Mem[5][4] _746_ NAND2X1
XOAI21X1_43 gnd vdd _603__bF$buf0 _746_ _116_ _751_ OAI21X1
XNAND2X1_50 vdd _752_ gnd Mem[5][5] _746_ NAND2X1
XOAI21X1_44 gnd vdd _605__bF$buf2 _746_ _117_ _752_ OAI21X1
XNAND2X1_51 vdd _753_ gnd Mem[5][6] _746_ NAND2X1
XOAI21X1_45 gnd vdd _607__bF$buf2 _746_ _118_ _753_ OAI21X1
XNAND2X1_52 vdd _754_ gnd Mem[5][7] _746_ NAND2X1
XOAI21X1_46 gnd vdd _609__bF$buf1 _746_ _119_ _754_ OAI21X1
XNAND2X1_53 vdd _755_ gnd _690_ _679_ NAND2X1
XNAND2X1_54 vdd _756_ gnd Mem[6][0] _755_ NAND2X1
XOAI21X1_47 gnd vdd _587__bF$buf3 _755_ _120_ _756_ OAI21X1
XNAND2X1_55 vdd _757_ gnd Mem[6][1] _755_ NAND2X1
XOAI21X1_48 gnd vdd _597__bF$buf1 _755_ _121_ _757_ OAI21X1
XNAND2X1_56 vdd _758_ gnd Mem[6][2] _755_ NAND2X1
XOAI21X1_49 gnd vdd _599__bF$buf1 _755_ _122_ _758_ OAI21X1
XNAND2X1_57 vdd _759_ gnd Mem[6][3] _755_ NAND2X1
XOAI21X1_50 gnd vdd _601__bF$buf2 _755_ _123_ _759_ OAI21X1
XNAND2X1_58 vdd _760_ gnd Mem[6][4] _755_ NAND2X1
XOAI21X1_51 gnd vdd _603__bF$buf1 _755_ _124_ _760_ OAI21X1
XNAND2X1_59 vdd _761_ gnd Mem[6][5] _755_ NAND2X1
XOAI21X1_52 gnd vdd _605__bF$buf0 _755_ _125_ _761_ OAI21X1
XNAND2X1_60 vdd _762_ gnd Mem[6][6] _755_ NAND2X1
XOAI21X1_53 gnd vdd _607__bF$buf2 _755_ _126_ _762_ OAI21X1
XNAND2X1_61 vdd _763_ gnd Mem[6][7] _755_ NAND2X1
XOAI21X1_54 gnd vdd _609__bF$buf0 _755_ _127_ _763_ OAI21X1
XNAND2X1_62 vdd _764_ gnd _612_ _690_ NAND2X1
XNAND2X1_63 vdd _765_ gnd Mem[14][0] _764_ NAND2X1
XOAI21X1_55 gnd vdd _587__bF$buf4 _764_ _128_ _765_ OAI21X1
XNAND2X1_64 vdd _766_ gnd Mem[14][1] _764_ NAND2X1
XOAI21X1_56 gnd vdd _597__bF$buf0 _764_ _129_ _766_ OAI21X1
XNAND2X1_65 vdd _767_ gnd Mem[14][2] _764_ NAND2X1
XOAI21X1_57 gnd vdd _599__bF$buf4 _764_ _130_ _767_ OAI21X1
XNAND2X1_66 vdd _768_ gnd Mem[14][3] _764_ NAND2X1
XOAI21X1_58 gnd vdd _601__bF$buf2 _764_ _131_ _768_ OAI21X1
XNAND2X1_67 vdd _769_ gnd Mem[14][4] _764_ NAND2X1
XOAI21X1_59 gnd vdd _603__bF$buf4 _764_ _132_ _769_ OAI21X1
XNAND2X1_68 vdd _770_ gnd Mem[14][5] _764_ NAND2X1
XOAI21X1_60 gnd vdd _605__bF$buf2 _764_ _133_ _770_ OAI21X1
XNAND2X1_69 vdd _771_ gnd Mem[14][6] _764_ NAND2X1
XOAI21X1_61 gnd vdd _607__bF$buf2 _764_ _134_ _771_ OAI21X1
XNAND2X1_70 vdd _772_ gnd Mem[14][7] _764_ NAND2X1
XOAI21X1_62 gnd vdd _609__bF$buf0 _764_ _135_ _772_ OAI21X1
XNAND2X1_71 vdd _773_ gnd _647_ _635_ NAND2X1
XNAND2X1_72 vdd _774_ gnd Mem[16][0] _773_ NAND2X1
XOAI21X1_63 gnd vdd _587__bF$buf2 _773_ _136_ _774_ OAI21X1
XNAND2X1_73 vdd _775_ gnd Mem[16][1] _773_ NAND2X1
XOAI21X1_64 gnd vdd _597__bF$buf0 _773_ _137_ _775_ OAI21X1
XNAND2X1_74 vdd _776_ gnd Mem[16][2] _773_ NAND2X1
XOAI21X1_65 gnd vdd _599__bF$buf4 _773_ _138_ _776_ OAI21X1
XNAND2X1_75 vdd _777_ gnd Mem[16][3] _773_ NAND2X1
XOAI21X1_66 gnd vdd _601__bF$buf4 _773_ _139_ _777_ OAI21X1
XNAND2X1_76 vdd _778_ gnd Mem[16][4] _773_ NAND2X1
XOAI21X1_67 gnd vdd _603__bF$buf3 _773_ _140_ _778_ OAI21X1
XNAND2X1_77 vdd _779_ gnd Mem[16][5] _773_ NAND2X1
XOAI21X1_68 gnd vdd _605__bF$buf2 _773_ _141_ _779_ OAI21X1
XNAND2X1_78 vdd _780_ gnd Mem[16][6] _773_ NAND2X1
XOAI21X1_69 gnd vdd _607__bF$buf4 _773_ _142_ _780_ OAI21X1
XNAND2X1_79 vdd _781_ gnd Mem[16][7] _773_ NAND2X1
XOAI21X1_70 gnd vdd _609__bF$buf3 _773_ _143_ _781_ OAI21X1
XNAND2X1_80 vdd _782_ gnd _594_ _647_ NAND2X1
XNAND2X1_81 vdd _783_ gnd Mem[17][0] _782_ NAND2X1
XOAI21X1_71 gnd vdd _587__bF$buf2 _782_ _144_ _783_ OAI21X1
XNAND2X1_82 vdd _784_ gnd Mem[17][1] _782_ NAND2X1
XOAI21X1_72 gnd vdd _597__bF$buf0 _782_ _145_ _784_ OAI21X1
XNAND2X1_83 vdd _785_ gnd Mem[17][2] _782_ NAND2X1
XOAI21X1_73 gnd vdd _599__bF$buf4 _782_ _146_ _785_ OAI21X1
XNAND2X1_84 vdd _786_ gnd Mem[17][3] _782_ NAND2X1
XOAI21X1_74 gnd vdd _601__bF$buf4 _782_ _147_ _786_ OAI21X1
XNAND2X1_85 vdd _787_ gnd Mem[17][4] _782_ NAND2X1
XOAI21X1_75 gnd vdd _603__bF$buf3 _782_ _148_ _787_ OAI21X1
XNAND2X1_86 vdd _788_ gnd Mem[17][5] _782_ NAND2X1
XOAI21X1_76 gnd vdd _605__bF$buf3 _782_ _149_ _788_ OAI21X1
XNAND2X1_87 vdd _789_ gnd Mem[17][6] _782_ NAND2X1
XOAI21X1_77 gnd vdd _607__bF$buf4 _782_ _150_ _789_ OAI21X1
XNAND2X1_88 vdd _790_ gnd Mem[17][7] _782_ NAND2X1
XOAI21X1_78 gnd vdd _609__bF$buf3 _782_ _151_ _790_ OAI21X1
XNAND2X1_89 vdd _791_ gnd _647_ _690_ NAND2X1
XNAND2X1_90 vdd _792_ gnd Mem[18][0] _791_ NAND2X1
XOAI21X1_79 gnd vdd _587__bF$buf2 _791_ _152_ _792_ OAI21X1
XNAND2X1_91 vdd _793_ gnd Mem[18][1] _791_ NAND2X1
XOAI21X1_80 gnd vdd _597__bF$buf3 _791_ _153_ _793_ OAI21X1
XNAND2X1_92 vdd _794_ gnd Mem[18][2] _791_ NAND2X1
XOAI21X1_81 gnd vdd _599__bF$buf2 _791_ _154_ _794_ OAI21X1
XNAND2X1_93 vdd _795_ gnd Mem[18][3] _791_ NAND2X1
XOAI21X1_82 gnd vdd _601__bF$buf3 _791_ _155_ _795_ OAI21X1
XNAND2X1_94 vdd _796_ gnd Mem[18][4] _791_ NAND2X1
XOAI21X1_83 gnd vdd _603__bF$buf3 _791_ _156_ _796_ OAI21X1
XNAND2X1_95 vdd _797_ gnd Mem[18][5] _791_ NAND2X1
XOAI21X1_84 gnd vdd _605__bF$buf2 _791_ _157_ _797_ OAI21X1
XNAND2X1_96 vdd _798_ gnd Mem[18][6] _791_ NAND2X1
XOAI21X1_85 gnd vdd _607__bF$buf0 _791_ _158_ _798_ OAI21X1
XNAND2X1_97 vdd _799_ gnd Mem[18][7] _791_ NAND2X1
XOAI21X1_86 gnd vdd _609__bF$buf4 _791_ _159_ _799_ OAI21X1
XNAND2X1_98 vdd _800_ gnd _594_ _700_ NAND2X1
XNAND2X1_99 vdd _801_ gnd Mem[1][0] _800_ NAND2X1
XOAI21X1_87 gnd vdd _587__bF$buf4 _800_ _160_ _801_ OAI21X1
XNAND2X1_100 vdd _802_ gnd Mem[1][1] _800_ NAND2X1
XOAI21X1_88 gnd vdd _597__bF$buf2 _800_ _161_ _802_ OAI21X1
XNAND2X1_101 vdd _803_ gnd Mem[1][2] _800_ NAND2X1
XOAI21X1_89 gnd vdd _599__bF$buf0 _800_ _162_ _803_ OAI21X1
XNAND2X1_102 vdd _804_ gnd Mem[1][3] _800_ NAND2X1
XOAI21X1_90 gnd vdd _601__bF$buf0 _800_ _163_ _804_ OAI21X1
XNAND2X1_103 vdd _805_ gnd Mem[1][4] _800_ NAND2X1
XOAI21X1_91 gnd vdd _603__bF$buf2 _800_ _164_ _805_ OAI21X1
XNAND2X1_104 vdd _806_ gnd Mem[1][5] _800_ NAND2X1
XOAI21X1_92 gnd vdd _605__bF$buf4 _800_ _165_ _806_ OAI21X1
XNAND2X1_105 vdd _807_ gnd Mem[1][6] _800_ NAND2X1
XOAI21X1_93 gnd vdd _607__bF$buf3 _800_ _166_ _807_ OAI21X1
XNAND2X1_106 vdd _808_ gnd Mem[1][7] _800_ NAND2X1
XOAI21X1_94 gnd vdd _609__bF$buf0 _800_ _167_ _808_ OAI21X1
XNOR2X1_19 vdd _646_ gnd _809_ _611_ NOR2X1
XNAND2X1_107 vdd _810_ gnd _809_ _635_ NAND2X1
XNAND2X1_108 vdd _811_ gnd Mem[20][0] _810_ NAND2X1
XOAI21X1_95 gnd vdd _587__bF$buf3 _810_ _168_ _811_ OAI21X1
XNAND2X1_109 vdd _812_ gnd Mem[20][1] _810_ NAND2X1
XOAI21X1_96 gnd vdd _597__bF$buf1 _810_ _169_ _812_ OAI21X1
XNAND2X1_110 vdd _813_ gnd Mem[20][2] _810_ NAND2X1
XOAI21X1_97 gnd vdd _599__bF$buf2 _810_ _170_ _813_ OAI21X1
XNAND2X1_111 vdd _814_ gnd Mem[20][3] _810_ NAND2X1
XOAI21X1_98 gnd vdd _601__bF$buf4 _810_ _171_ _814_ OAI21X1
XNAND2X1_112 vdd _815_ gnd Mem[20][4] _810_ NAND2X1
XOAI21X1_99 gnd vdd _603__bF$buf1 _810_ _172_ _815_ OAI21X1
XNAND2X1_113 vdd _816_ gnd Mem[20][5] _810_ NAND2X1
XOAI21X1_100 gnd vdd _605__bF$buf0 _810_ _173_ _816_ OAI21X1
XNAND2X1_114 vdd _817_ gnd Mem[20][6] _810_ NAND2X1
XOAI21X1_101 gnd vdd _607__bF$buf1 _810_ _174_ _817_ OAI21X1
XNAND2X1_115 vdd _818_ gnd Mem[20][7] _810_ NAND2X1
XOAI21X1_102 gnd vdd _609__bF$buf3 _810_ _175_ _818_ OAI21X1
XNAND2X1_116 vdd _819_ gnd _594_ _809_ NAND2X1
XNAND2X1_117 vdd _820_ gnd Mem[21][0] _819_ NAND2X1
XOAI21X1_103 gnd vdd _587__bF$buf3 _819_ _176_ _820_ OAI21X1
XNAND2X1_118 vdd _821_ gnd Mem[21][1] _819_ NAND2X1
XOAI21X1_104 gnd vdd _597__bF$buf3 _819_ _177_ _821_ OAI21X1
XNAND2X1_119 vdd _822_ gnd Mem[21][2] _819_ NAND2X1
XOAI21X1_105 gnd vdd _599__bF$buf2 _819_ _178_ _822_ OAI21X1
XNAND2X1_120 vdd _823_ gnd Mem[21][3] _819_ NAND2X1
XOAI21X1_106 gnd vdd _601__bF$buf4 _819_ _179_ _823_ OAI21X1
XNAND2X1_121 vdd _824_ gnd Mem[21][4] _819_ NAND2X1
XOAI21X1_107 gnd vdd _603__bF$buf1 _819_ _180_ _824_ OAI21X1
XNAND2X1_122 vdd _825_ gnd Mem[21][5] _819_ NAND2X1
XOAI21X1_108 gnd vdd _605__bF$buf0 _819_ _181_ _825_ OAI21X1
XNAND2X1_123 vdd _826_ gnd Mem[21][6] _819_ NAND2X1
XOAI21X1_109 gnd vdd _607__bF$buf1 _819_ _182_ _826_ OAI21X1
XNAND2X1_124 vdd _827_ gnd Mem[21][7] _819_ NAND2X1
XOAI21X1_110 gnd vdd _609__bF$buf0 _819_ _183_ _827_ OAI21X1
XNAND2X1_125 vdd _828_ gnd _690_ _809_ NAND2X1
XNAND2X1_126 vdd _829_ gnd Mem[22][0] _828_ NAND2X1
XOAI21X1_111 gnd vdd _587__bF$buf1 _828_ _184_ _829_ OAI21X1
XNAND2X1_127 vdd _830_ gnd Mem[22][1] _828_ NAND2X1
XOAI21X1_112 gnd vdd _597__bF$buf1 _828_ _185_ _830_ OAI21X1
XNAND2X1_128 vdd _831_ gnd Mem[22][2] _828_ NAND2X1
XOAI21X1_113 gnd vdd _599__bF$buf1 _828_ _186_ _831_ OAI21X1
XNAND2X1_129 vdd _832_ gnd Mem[22][3] _828_ NAND2X1
XOAI21X1_114 gnd vdd _601__bF$buf3 _828_ _187_ _832_ OAI21X1
XNAND2X1_130 vdd _833_ gnd Mem[22][4] _828_ NAND2X1
XOAI21X1_115 gnd vdd _603__bF$buf1 _828_ _188_ _833_ OAI21X1
XNAND2X1_131 vdd _834_ gnd Mem[22][5] _828_ NAND2X1
XOAI21X1_116 gnd vdd _605__bF$buf1 _828_ _189_ _834_ OAI21X1
XNAND2X1_132 vdd _835_ gnd Mem[22][6] _828_ NAND2X1
XOAI21X1_117 gnd vdd _607__bF$buf0 _828_ _190_ _835_ OAI21X1
XNAND2X1_133 vdd _836_ gnd Mem[22][7] _828_ NAND2X1
XOAI21X1_118 gnd vdd _609__bF$buf4 _828_ _191_ _836_ OAI21X1
XNAND2X1_134 vdd _837_ gnd _623_ _809_ NAND2X1
XNAND2X1_135 vdd _838_ gnd Mem[23][0] _837_ NAND2X1
XOAI21X1_119 gnd vdd _587__bF$buf3 _837_ _192_ _838_ OAI21X1
XNAND2X1_136 vdd _839_ gnd Mem[23][1] _837_ NAND2X1
XOAI21X1_120 gnd vdd _597__bF$buf4 _837_ _193_ _839_ OAI21X1
XNAND2X1_137 vdd _840_ gnd Mem[23][2] _837_ NAND2X1
XOAI21X1_121 gnd vdd _599__bF$buf1 _837_ _194_ _840_ OAI21X1
XNAND2X1_138 vdd _841_ gnd Mem[23][3] _837_ NAND2X1
XOAI21X1_122 gnd vdd _601__bF$buf3 _837_ _195_ _841_ OAI21X1
XNAND2X1_139 vdd _842_ gnd Mem[23][4] _837_ NAND2X1
XOAI21X1_123 gnd vdd _603__bF$buf1 _837_ _196_ _842_ OAI21X1
XNAND2X1_140 vdd _843_ gnd Mem[23][5] _837_ NAND2X1
XOAI21X1_124 gnd vdd _605__bF$buf1 _837_ _197_ _843_ OAI21X1
XNAND2X1_141 vdd _844_ gnd Mem[23][6] _837_ NAND2X1
XOAI21X1_125 gnd vdd _607__bF$buf0 _837_ _198_ _844_ OAI21X1
XNAND2X1_142 vdd _264_ gnd Mem[23][7] _837_ NAND2X1
XOAI21X1_126 gnd vdd _609__bF$buf0 _837_ _199_ _264_ OAI21X1
XNOR2X1_20 vdd _657_ gnd _265_ address[2] NOR2X1
XNAND2X1_143 vdd _266_ gnd _265_ _635_ NAND2X1
XNAND2X1_144 vdd _267_ gnd Mem[24][0] _266_ NAND2X1
XOAI21X1_127 gnd vdd _587__bF$buf1 _266_ _200_ _267_ OAI21X1
XNAND2X1_145 vdd _268_ gnd Mem[24][1] _266_ NAND2X1
XOAI21X1_128 gnd vdd _597__bF$buf4 _266_ _201_ _268_ OAI21X1
XNAND2X1_146 vdd _269_ gnd Mem[24][2] _266_ NAND2X1
XOAI21X1_129 gnd vdd _599__bF$buf3 _266_ _202_ _269_ OAI21X1
XNAND2X1_147 vdd _270_ gnd Mem[24][3] _266_ NAND2X1
XOAI21X1_130 gnd vdd _601__bF$buf3 _266_ _203_ _270_ OAI21X1
XNAND2X1_148 vdd _271_ gnd Mem[24][4] _266_ NAND2X1
XOAI21X1_131 gnd vdd _603__bF$buf1 _266_ _204_ _271_ OAI21X1
XNAND2X1_149 vdd _272_ gnd Mem[24][5] _266_ NAND2X1
XOAI21X1_132 gnd vdd _605__bF$buf1 _266_ _205_ _272_ OAI21X1
XNAND2X1_150 vdd _273_ gnd Mem[24][6] _266_ NAND2X1
XOAI21X1_133 gnd vdd _607__bF$buf0 _266_ _206_ _273_ OAI21X1
XNAND2X1_151 vdd _274_ gnd Mem[24][7] _266_ NAND2X1
XOAI21X1_134 gnd vdd _609__bF$buf4 _266_ _207_ _274_ OAI21X1
XNAND2X1_152 vdd _275_ gnd _265_ _594_ NAND2X1
XNAND2X1_153 vdd _276_ gnd Mem[25][0] _275_ NAND2X1
XOAI21X1_135 gnd vdd _587__bF$buf0 _275_ _208_ _276_ OAI21X1
XNAND2X1_154 vdd _277_ gnd Mem[25][1] _275_ NAND2X1
XOAI21X1_136 gnd vdd _597__bF$buf1 _275_ _209_ _277_ OAI21X1
XNAND2X1_155 vdd _278_ gnd Mem[25][2] _275_ NAND2X1
XOAI21X1_137 gnd vdd _599__bF$buf3 _275_ _210_ _278_ OAI21X1
XNAND2X1_156 vdd _279_ gnd Mem[25][3] _275_ NAND2X1
XOAI21X1_138 gnd vdd _601__bF$buf3 _275_ _211_ _279_ OAI21X1
XNAND2X1_157 vdd _280_ gnd Mem[25][4] _275_ NAND2X1
XOAI21X1_139 gnd vdd _603__bF$buf0 _275_ _212_ _280_ OAI21X1
XNAND2X1_158 vdd _281_ gnd Mem[25][5] _275_ NAND2X1
XOAI21X1_140 gnd vdd _605__bF$buf0 _275_ _213_ _281_ OAI21X1
XNAND2X1_159 vdd _282_ gnd Mem[25][6] _275_ NAND2X1
XOAI21X1_141 gnd vdd _607__bF$buf0 _275_ _214_ _282_ OAI21X1
XNAND2X1_160 vdd _283_ gnd Mem[25][7] _275_ NAND2X1
XOAI21X1_142 gnd vdd _609__bF$buf0 _275_ _215_ _283_ OAI21X1
XNAND2X1_161 vdd _284_ gnd _265_ _690_ NAND2X1
XNAND2X1_162 vdd _285_ gnd Mem[26][0] _284_ NAND2X1
XOAI21X1_143 gnd vdd _587__bF$buf0 _284_ _216_ _285_ OAI21X1
XNAND2X1_163 vdd _286_ gnd Mem[26][1] _284_ NAND2X1
XOAI21X1_144 gnd vdd _597__bF$buf1 _284_ _217_ _286_ OAI21X1
XNAND2X1_164 vdd _287_ gnd Mem[26][2] _284_ NAND2X1
XOAI21X1_145 gnd vdd _599__bF$buf0 _284_ _218_ _287_ OAI21X1
XNAND2X1_165 vdd _288_ gnd Mem[26][3] _284_ NAND2X1
XOAI21X1_146 gnd vdd _601__bF$buf1 _284_ _219_ _288_ OAI21X1
XNAND2X1_166 vdd _289_ gnd Mem[26][4] _284_ NAND2X1
XOAI21X1_147 gnd vdd _603__bF$buf0 _284_ _220_ _289_ OAI21X1
XNAND2X1_167 vdd _290_ gnd Mem[26][5] _284_ NAND2X1
XOAI21X1_148 gnd vdd _605__bF$buf1 _284_ _221_ _290_ OAI21X1
XNAND2X1_168 vdd _291_ gnd Mem[26][6] _284_ NAND2X1
XOAI21X1_149 gnd vdd _607__bF$buf1 _284_ _222_ _291_ OAI21X1
XNAND2X1_169 vdd _292_ gnd Mem[26][7] _284_ NAND2X1
XOAI21X1_150 gnd vdd _609__bF$buf2 _284_ _223_ _292_ OAI21X1
XNAND2X1_170 vdd _293_ gnd _265_ _623_ NAND2X1
XNAND2X1_171 vdd _294_ gnd Mem[27][0] _293_ NAND2X1
XOAI21X1_151 gnd vdd _587__bF$buf0 _293_ _224_ _294_ OAI21X1
XNAND2X1_172 vdd _295_ gnd Mem[27][1] _293_ NAND2X1
XOAI21X1_152 gnd vdd _597__bF$buf4 _293_ _225_ _295_ OAI21X1
XNAND2X1_173 vdd _296_ gnd Mem[27][2] _293_ NAND2X1
XOAI21X1_153 gnd vdd _599__bF$buf0 _293_ _226_ _296_ OAI21X1
XNAND2X1_174 vdd _297_ gnd Mem[27][3] _293_ NAND2X1
XOAI21X1_154 gnd vdd _601__bF$buf1 _293_ _227_ _297_ OAI21X1
XNAND2X1_175 vdd _298_ gnd Mem[27][4] _293_ NAND2X1
XOAI21X1_155 gnd vdd _603__bF$buf0 _293_ _228_ _298_ OAI21X1
XNAND2X1_176 vdd _299_ gnd Mem[27][5] _293_ NAND2X1
XOAI21X1_156 gnd vdd _605__bF$buf1 _293_ _229_ _299_ OAI21X1
XNAND2X1_177 vdd _300_ gnd Mem[27][6] _293_ NAND2X1
XOAI21X1_157 gnd vdd _607__bF$buf0 _293_ _230_ _300_ OAI21X1
XNAND2X1_178 vdd _301_ gnd Mem[27][7] _293_ NAND2X1
XOAI21X1_158 gnd vdd _609__bF$buf1 _293_ _231_ _301_ OAI21X1
XNAND2X1_179 vdd _302_ gnd _635_ _659_ NAND2X1
XNAND2X1_180 vdd _303_ gnd Mem[28][0] _302_ NAND2X1
XOAI21X1_159 gnd vdd _587__bF$buf4 _302_ _232_ _303_ OAI21X1
XNAND2X1_181 vdd _304_ gnd Mem[28][1] _302_ NAND2X1
XOAI21X1_160 gnd vdd _597__bF$buf4 _302_ _233_ _304_ OAI21X1
XNAND2X1_182 vdd _305_ gnd Mem[28][2] _302_ NAND2X1
XOAI21X1_161 gnd vdd _599__bF$buf3 _302_ _234_ _305_ OAI21X1
XNAND2X1_183 vdd _306_ gnd Mem[28][3] _302_ NAND2X1
XOAI21X1_162 gnd vdd _601__bF$buf0 _302_ _235_ _306_ OAI21X1
XNAND2X1_184 vdd _307_ gnd Mem[28][4] _302_ NAND2X1
XOAI21X1_163 gnd vdd _603__bF$buf4 _302_ _236_ _307_ OAI21X1
XNAND2X1_185 vdd _308_ gnd Mem[28][5] _302_ NAND2X1
XOAI21X1_164 gnd vdd _605__bF$buf4 _302_ _237_ _308_ OAI21X1
XNAND2X1_186 vdd _309_ gnd Mem[28][6] _302_ NAND2X1
XOAI21X1_165 gnd vdd _607__bF$buf2 _302_ _238_ _309_ OAI21X1
XNAND2X1_187 vdd _310_ gnd Mem[28][7] _302_ NAND2X1
XOAI21X1_166 gnd vdd _609__bF$buf4 _302_ _239_ _310_ OAI21X1
XNAND2X1_188 vdd _311_ gnd _690_ _700_ NAND2X1
XNAND2X1_189 vdd _312_ gnd Mem[2][0] _311_ NAND2X1
XOAI21X1_167 gnd vdd _587__bF$buf0 _311_ _240_ _312_ OAI21X1
XNAND2X1_190 vdd _313_ gnd Mem[2][1] _311_ NAND2X1
XOAI21X1_168 gnd vdd _597__bF$buf2 _311_ _241_ _313_ OAI21X1
XNAND2X1_191 vdd _314_ gnd Mem[2][2] _311_ NAND2X1
XOAI21X1_169 gnd vdd _599__bF$buf1 _311_ _242_ _314_ OAI21X1
XNAND2X1_192 vdd _315_ gnd Mem[2][3] _311_ NAND2X1
XOAI21X1_170 gnd vdd _601__bF$buf0 _311_ _243_ _315_ OAI21X1
XNAND2X1_193 vdd _316_ gnd Mem[2][4] _311_ NAND2X1
XOAI21X1_171 gnd vdd _603__bF$buf2 _311_ _244_ _316_ OAI21X1
XNAND2X1_194 vdd _317_ gnd Mem[2][5] _311_ NAND2X1
XOAI21X1_172 gnd vdd _605__bF$buf4 _311_ _245_ _317_ OAI21X1
XNAND2X1_195 vdd _318_ gnd Mem[2][6] _311_ NAND2X1
XOAI21X1_173 gnd vdd _607__bF$buf3 _311_ _246_ _318_ OAI21X1
XNAND2X1_196 vdd _319_ gnd Mem[2][7] _311_ NAND2X1
XOAI21X1_174 gnd vdd _609__bF$buf4 _311_ _247_ _319_ OAI21X1
XAND2X2_3 vdd gnd _659_ _690_ _320_ AND2X2
XNOR2X1_21 vdd _320_ gnd _321_ Mem[30][0] NOR2X1
XAOI21X1_17 gnd vdd _587__bF$buf2 _320_ _248_ _321_ AOI21X1
XNOR2X1_22 vdd _320_ gnd _322_ Mem[30][1] NOR2X1
XAOI21X1_18 gnd vdd _597__bF$buf4 _320_ _249_ _322_ AOI21X1
XNOR2X1_23 vdd _320_ gnd _323_ Mem[30][2] NOR2X1
XAOI21X1_19 gnd vdd _599__bF$buf3 _320_ _250_ _323_ AOI21X1
XNOR2X1_24 vdd _320_ gnd _324_ Mem[30][3] NOR2X1
XAOI21X1_20 gnd vdd _601__bF$buf2 _320_ _251_ _324_ AOI21X1
XNOR2X1_25 vdd _320_ gnd _325_ Mem[30][4] NOR2X1
XAOI21X1_21 gnd vdd _603__bF$buf4 _320_ _252_ _325_ AOI21X1
XNOR2X1_26 vdd _320_ gnd _326_ Mem[30][5] NOR2X1
XAOI21X1_22 gnd vdd _605__bF$buf3 _320_ _253_ _326_ AOI21X1
XNOR2X1_27 vdd _320_ gnd _327_ Mem[30][6] NOR2X1
XAOI21X1_23 gnd vdd _607__bF$buf2 _320_ _254_ _327_ AOI21X1
XNOR2X1_28 vdd _320_ gnd _328_ Mem[30][7] NOR2X1
XAOI21X1_24 gnd vdd _609__bF$buf3 _320_ _255_ _328_ AOI21X1
XINVX4_1 vdd gnd _329_ enable INVX4
XNAND2X1_197 vdd _330_ gnd r_w _845_[0] NAND2X1
XINVX4_2 vdd gnd _331_ r_w INVX4
XMUX2X1_1 address[0_bF$buf10] vdd gnd _332_ Mem[1][0] Mem[0][0] MUX2X1
XMUX2X1_2 address[0_bF$buf9] vdd gnd _333_ Mem[3][0] Mem[2][0] MUX2X1
XMUX2X1_3 address[1_bF$buf6] vdd gnd _334_ _333_ _332_ MUX2X1
XMUX2X1_4 address[0_bF$buf8] vdd gnd _335_ Mem[5][0] Mem[4][0] MUX2X1
XMUX2X1_5 address[0_bF$buf7] vdd gnd _336_ Mem[7][0] Mem[6][0] MUX2X1
XMUX2X1_6 address[1_bF$buf5] vdd gnd _337_ _336_ _335_ MUX2X1
XAOI22X1_1 gnd vdd _679_ _337_ _338_ _334_ _700_ AOI22X1
XMUX2X1_7 address[0_bF$buf6] vdd gnd _339_ Mem[9][0] Mem[8][0] MUX2X1
XMUX2X1_8 address[0_bF$buf5] vdd gnd _340_ Mem[11][0] Mem[10][0] MUX2X1
XMUX2X1_9 address[1_bF$buf4] vdd gnd _341_ _340_ _339_ MUX2X1
XMUX2X1_10 address[0_bF$buf4] vdd gnd _342_ Mem[13][0] Mem[12][0] MUX2X1