* XSpice netlist created from SPICE and liberty sources by spi2xspice.py
*SPICE netlist created from BLIF module ram32_sram by blif2BSpice
.subckt ram32_sram a_vdd a_gnd a_enable a_clk a_r_w a_datain_0_ a_datain_1_ a_datain_2_ a_datain_3_ a_datain_4_ a_datain_5_ a_datain_6_ a_datain_7_ a_address_0_ a_address_1_ a_address_2_ a_address_3_ a_address_4_ a_dataout_0_ a_dataout_1_ a_dataout_2_ a_dataout_3_ a_dataout_4_ a_dataout_5_ a_dataout_6_ a_dataout_7_
ACLKBUF1_1 [clk_bF$buf8] clk_bF$buf8_bF$buf3 d_lut_CLKBUF1
ACLKBUF1_2 [clk_bF$buf8] clk_bF$buf8_bF$buf2 d_lut_CLKBUF1
ACLKBUF1_3 [clk_bF$buf8] clk_bF$buf8_bF$buf1 d_lut_CLKBUF1
ACLKBUF1_4 [clk_bF$buf8] clk_bF$buf8_bF$buf0 d_lut_CLKBUF1
ACLKBUF1_5 [clk_bF$buf9] clk_bF$buf9_bF$buf3 d_lut_CLKBUF1
ACLKBUF1_6 [clk_bF$buf9] clk_bF$buf9_bF$buf2 d_lut_CLKBUF1
ACLKBUF1_7 [clk_bF$buf9] clk_bF$buf9_bF$buf1 d_lut_CLKBUF1
ACLKBUF1_8 [clk_bF$buf9] clk_bF$buf9_bF$buf0 d_lut_CLKBUF1
ACLKBUF1_9 [clk_bF$buf10] clk_bF$buf10_bF$buf3 d_lut_CLKBUF1
ACLKBUF1_10 [clk_bF$buf10] clk_bF$buf10_bF$buf2 d_lut_CLKBUF1
ACLKBUF1_11 [clk_bF$buf10] clk_bF$buf10_bF$buf1 d_lut_CLKBUF1
ACLKBUF1_12 [clk_bF$buf10] clk_bF$buf10_bF$buf0 d_lut_CLKBUF1
ACLKBUF1_13 [clk_bF$buf11] clk_bF$buf11_bF$buf3 d_lut_CLKBUF1
ACLKBUF1_14 [clk_bF$buf11] clk_bF$buf11_bF$buf2 d_lut_CLKBUF1
ACLKBUF1_15 [clk_bF$buf11] clk_bF$buf11_bF$buf1 d_lut_CLKBUF1
ACLKBUF1_16 [clk_bF$buf11] clk_bF$buf11_bF$buf0 d_lut_CLKBUF1
ACLKBUF1_17 [clk_bF$buf12] clk_bF$buf12_bF$buf3 d_lut_CLKBUF1
ACLKBUF1_18 [clk_bF$buf12] clk_bF$buf12_bF$buf2 d_lut_CLKBUF1
ACLKBUF1_19 [clk_bF$buf12] clk_bF$buf12_bF$buf1 d_lut_CLKBUF1
ACLKBUF1_20 [clk_bF$buf12] clk_bF$buf12_bF$buf0 d_lut_CLKBUF1
ACLKBUF1_21 [clk_bF$buf13] clk_bF$buf13_bF$buf3 d_lut_CLKBUF1
ACLKBUF1_22 [clk_bF$buf13] clk_bF$buf13_bF$buf2 d_lut_CLKBUF1
ACLKBUF1_23 [clk_bF$buf13] clk_bF$buf13_bF$buf1 d_lut_CLKBUF1
ACLKBUF1_24 [clk_bF$buf13] clk_bF$buf13_bF$buf0 d_lut_CLKBUF1
ACLKBUF1_25 [clk_bF$buf14] clk_bF$buf14_bF$buf3 d_lut_CLKBUF1
ACLKBUF1_26 [clk_bF$buf14] clk_bF$buf14_bF$buf2 d_lut_CLKBUF1
ACLKBUF1_27 [clk_bF$buf14] clk_bF$buf14_bF$buf1 d_lut_CLKBUF1
ACLKBUF1_28 [clk_bF$buf14] clk_bF$buf14_bF$buf0 d_lut_CLKBUF1
ACLKBUF1_29 [clk_bF$buf15] clk_bF$buf15_bF$buf3 d_lut_CLKBUF1
ACLKBUF1_30 [clk_bF$buf15] clk_bF$buf15_bF$buf2 d_lut_CLKBUF1
ACLKBUF1_31 [clk_bF$buf15] clk_bF$buf15_bF$buf1 d_lut_CLKBUF1
ACLKBUF1_32 [clk_bF$buf15] clk_bF$buf15_bF$buf0 d_lut_CLKBUF1
ABUFX4_1 [_603_] _603__bF$buf4 d_lut_BUFX4
ABUFX4_2 [_603_] _603__bF$buf3 d_lut_BUFX4
ABUFX4_3 [_603_] _603__bF$buf2 d_lut_BUFX4
ABUFX4_4 [_603_] _603__bF$buf1 d_lut_BUFX4
ABUFX4_5 [_603_] _603__bF$buf0 d_lut_BUFX4
ABUFX4_6 [address_1_] address_1_bF$buf7_ d_lut_BUFX4
ABUFX4_7 [address_1_] address_1_bF$buf6_ d_lut_BUFX4
ABUFX4_8 [address_1_] address_1_bF$buf5_ d_lut_BUFX4
ABUFX4_9 [address_1_] address_1_bF$buf4_ d_lut_BUFX4
ABUFX4_10 [address_1_] address_1_bF$buf3_ d_lut_BUFX4
ABUFX4_11 [address_1_] address_1_bF$buf2_ d_lut_BUFX4
ABUFX4_12 [address_1_] address_1_bF$buf1_ d_lut_BUFX4
ABUFX4_13 [address_1_] address_1_bF$buf0_ d_lut_BUFX4
ACLKBUF1_33 [clk] clk_bF$buf15 d_lut_CLKBUF1
ACLKBUF1_34 [clk] clk_bF$buf14 d_lut_CLKBUF1
ACLKBUF1_35 [clk] clk_bF$buf13 d_lut_CLKBUF1
ACLKBUF1_36 [clk] clk_bF$buf12 d_lut_CLKBUF1
ACLKBUF1_37 [clk] clk_bF$buf11 d_lut_CLKBUF1
ACLKBUF1_38 [clk] clk_bF$buf10 d_lut_CLKBUF1
ACLKBUF1_39 [clk] clk_bF$buf9 d_lut_CLKBUF1
ACLKBUF1_40 [clk] clk_bF$buf8 d_lut_CLKBUF1
ACLKBUF1_41 [clk] clk_bF$buf7 d_lut_CLKBUF1
ACLKBUF1_42 [clk] clk_bF$buf6 d_lut_CLKBUF1
ACLKBUF1_43 [clk] clk_bF$buf5 d_lut_CLKBUF1
ACLKBUF1_44 [clk] clk_bF$buf4 d_lut_CLKBUF1
ACLKBUF1_45 [clk] clk_bF$buf3 d_lut_CLKBUF1
ACLKBUF1_46 [clk] clk_bF$buf2 d_lut_CLKBUF1
ACLKBUF1_47 [clk] clk_bF$buf1 d_lut_CLKBUF1
ACLKBUF1_48 [clk] clk_bF$buf0 d_lut_CLKBUF1
ABUFX4_14 [_599_] _599__bF$buf4 d_lut_BUFX4
ABUFX4_15 [_599_] _599__bF$buf3 d_lut_BUFX4
ABUFX4_16 [_599_] _599__bF$buf2 d_lut_BUFX4
ABUFX4_17 [_599_] _599__bF$buf1 d_lut_BUFX4
ABUFX4_18 [_599_] _599__bF$buf0 d_lut_BUFX4
ABUFX4_19 [_587_] _587__bF$buf4 d_lut_BUFX4
ABUFX4_20 [_587_] _587__bF$buf3 d_lut_BUFX4
ABUFX4_21 [_587_] _587__bF$buf2 d_lut_BUFX4
ABUFX4_22 [_587_] _587__bF$buf1 d_lut_BUFX4
ABUFX4_23 [_587_] _587__bF$buf0 d_lut_BUFX4
ABUFX4_24 [_605_] _605__bF$buf4 d_lut_BUFX4
ABUFX4_25 [_605_] _605__bF$buf3 d_lut_BUFX4
ABUFX4_26 [_605_] _605__bF$buf2 d_lut_BUFX4
ABUFX4_27 [_605_] _605__bF$buf1 d_lut_BUFX4
ABUFX4_28 [_605_] _605__bF$buf0 d_lut_BUFX4
ABUFX4_29 [address_0_] address_0_bF$buf10_ d_lut_BUFX4
ABUFX4_30 [address_0_] address_0_bF$buf9_ d_lut_BUFX4
ABUFX4_31 [address_0_] address_0_bF$buf8_ d_lut_BUFX4
ABUFX4_32 [address_0_] address_0_bF$buf7_ d_lut_BUFX4
ABUFX4_33 [address_0_] address_0_bF$buf6_ d_lut_BUFX4
ABUFX4_34 [address_0_] address_0_bF$buf5_ d_lut_BUFX4
ABUFX4_35 [address_0_] address_0_bF$buf4_ d_lut_BUFX4
ABUFX4_36 [address_0_] address_0_bF$buf3_ d_lut_BUFX4
ABUFX4_37 [address_0_] address_0_bF$buf2_ d_lut_BUFX4
ABUFX4_38 [address_0_] address_0_bF$buf1_ d_lut_BUFX4
ABUFX4_39 [address_0_] address_0_bF$buf0_ d_lut_BUFX4
ABUFX4_40 [_607_] _607__bF$buf4 d_lut_BUFX4
ABUFX4_41 [_607_] _607__bF$buf3 d_lut_BUFX4
ABUFX4_42 [_607_] _607__bF$buf2 d_lut_BUFX4
ABUFX4_43 [_607_] _607__bF$buf1 d_lut_BUFX4
ABUFX4_44 [_607_] _607__bF$buf0 d_lut_BUFX4
ABUFX4_45 [_601_] _601__bF$buf4 d_lut_BUFX4
ABUFX4_46 [_601_] _601__bF$buf3 d_lut_BUFX4
ABUFX4_47 [_601_] _601__bF$buf2 d_lut_BUFX4
ABUFX4_48 [_601_] _601__bF$buf1 d_lut_BUFX4
ABUFX4_49 [_601_] _601__bF$buf0 d_lut_BUFX4
ABUFX4_50 [_597_] _597__bF$buf4 d_lut_BUFX4
ABUFX4_51 [_597_] _597__bF$buf3 d_lut_BUFX4
ABUFX4_52 [_597_] _597__bF$buf2 d_lut_BUFX4
ABUFX4_53 [_597_] _597__bF$buf1 d_lut_BUFX4
ABUFX4_54 [_597_] _597__bF$buf0 d_lut_BUFX4
ABUFX4_55 [_609_] _609__bF$buf4 d_lut_BUFX4
ABUFX4_56 [_609_] _609__bF$buf3 d_lut_BUFX4
ABUFX4_57 [_609_] _609__bF$buf2 d_lut_BUFX4
ABUFX4_58 [_609_] _609__bF$buf1 d_lut_BUFX4
ABUFX4_59 [_609_] _609__bF$buf0 d_lut_BUFX4
ANAND2X1_1 [Mem_4__2_ _680_] _683_ d_lut_NAND2X1
AOAI21X1_1 [_599__bF$buf4 _680_ _683_] _58_ d_lut_OAI21X1
ANAND2X1_2 [Mem_4__3_ _680_] _684_ d_lut_NAND2X1
AOAI21X1_2 [_601__bF$buf4 _680_ _684_] _59_ d_lut_OAI21X1
ANAND2X1_3 [Mem_4__4_ _680_] _685_ d_lut_NAND2X1
AOAI21X1_3 [_603__bF$buf4 _680_ _685_] _60_ d_lut_OAI21X1
ANAND2X1_4 [Mem_4__5_ _680_] _686_ d_lut_NAND2X1
AOAI21X1_4 [_605__bF$buf4 _680_ _686_] _61_ d_lut_OAI21X1
ANAND2X1_5 [Mem_4__6_ _680_] _687_ d_lut_NAND2X1
AOAI21X1_5 [_607__bF$buf4 _680_ _687_] _62_ d_lut_OAI21X1
ANAND2X1_6 [Mem_4__7_ _680_] _688_ d_lut_NAND2X1
AOAI21X1_6 [_609__bF$buf4 _680_ _688_] _63_ d_lut_OAI21X1
ANAND2X1_7 [address_1_bF$buf7_ _633_] _689_ d_lut_NAND2X1
ANOR2X1_1 [_591_ _689_] _690_ d_lut_NOR2X1
ANAND2X1_8 [_590_ _690_] _691_ d_lut_NAND2X1
ANAND2X1_9 [Mem_10__0_ _691_] _692_ d_lut_NAND2X1
AOAI21X1_7 [_587__bF$buf4 _691_ _692_] _64_ d_lut_OAI21X1
ANAND2X1_10 [Mem_10__1_ _691_] _693_ d_lut_NAND2X1
AOAI21X1_8 [_597__bF$buf4 _691_ _693_] _65_ d_lut_OAI21X1
ANAND2X1_11 [Mem_10__2_ _691_] _694_ d_lut_NAND2X1
AOAI21X1_9 [_599__bF$buf3 _691_ _694_] _66_ d_lut_OAI21X1
ANAND2X1_12 [Mem_10__3_ _691_] _695_ d_lut_NAND2X1
AOAI21X1_10 [_601__bF$buf3 _691_ _695_] _67_ d_lut_OAI21X1
ANAND2X1_13 [Mem_10__4_ _691_] _696_ d_lut_NAND2X1
AOAI21X1_11 [_603__bF$buf3 _691_ _696_] _68_ d_lut_OAI21X1
ANAND2X1_14 [Mem_10__5_ _691_] _697_ d_lut_NAND2X1
AOAI21X1_12 [_605__bF$buf3 _691_ _697_] _69_ d_lut_OAI21X1
ANAND2X1_15 [Mem_10__6_ _691_] _698_ d_lut_NAND2X1
AOAI21X1_13 [_607__bF$buf3 _691_ _698_] _70_ d_lut_OAI21X1
ANAND2X1_16 [Mem_10__7_ _691_] _699_ d_lut_NAND2X1
AOAI21X1_14 [_609__bF$buf3 _691_ _699_] _71_ d_lut_OAI21X1
ANOR2X1_2 [address_2_ _678_] _700_ d_lut_NOR2X1
AAND2X2_1 [_700_ _623_] _701_ d_lut_AND2X2
ANOR2X1_3 [Mem_3__0_ _701_] _702_ d_lut_NOR2X1
AAOI21X1_1 [_587__bF$buf3 _701_ _702_] _72_ d_lut_AOI21X1
ANOR2X1_4 [Mem_3__1_ _701_] _703_ d_lut_NOR2X1
AAOI21X1_2 [_597__bF$buf3 _701_ _703_] _73_ d_lut_AOI21X1
ANOR2X1_5 [Mem_3__2_ _701_] _704_ d_lut_NOR2X1
AAOI21X1_3 [_599__bF$buf2 _701_ _704_] _74_ d_lut_AOI21X1
ANOR2X1_6 [Mem_3__3_ _701_] _705_ d_lut_NOR2X1
AAOI21X1_4 [_601__bF$buf2 _701_ _705_] _75_ d_lut_AOI21X1
ANOR2X1_7 [Mem_3__4_ _701_] _706_ d_lut_NOR2X1
AAOI21X1_5 [_603__bF$buf2 _701_ _706_] _76_ d_lut_AOI21X1
ANOR2X1_8 [Mem_3__5_ _701_] _707_ d_lut_NOR2X1
AAOI21X1_6 [_605__bF$buf2 _701_ _707_] _77_ d_lut_AOI21X1
ANOR2X1_9 [Mem_3__6_ _701_] _708_ d_lut_NOR2X1
AAOI21X1_7 [_607__bF$buf2 _701_ _708_] _78_ d_lut_AOI21X1
ANOR2X1_10 [Mem_3__7_ _701_] _709_ d_lut_NOR2X1
AAOI21X1_8 [_609__bF$buf2 _701_ _709_] _79_ d_lut_AOI21X1
ANAND2X1_17 [_635_ _700_] _710_ d_lut_NAND2X1
ANAND2X1_18 [Mem_0__0_ _710_] _711_ d_lut_NAND2X1
AOAI21X1_15 [_587__bF$buf2 _710_ _711_] _80_ d_lut_OAI21X1
ANAND2X1_19 [Mem_0__1_ _710_] _712_ d_lut_NAND2X1
AOAI21X1_16 [_597__bF$buf2 _710_ _712_] _81_ d_lut_OAI21X1
ANAND2X1_20 [Mem_0__2_ _710_] _713_ d_lut_NAND2X1
AOAI21X1_17 [_599__bF$buf1 _710_ _713_] _82_ d_lut_OAI21X1
ANAND2X1_21 [Mem_0__3_ _710_] _714_ d_lut_NAND2X1
AOAI21X1_18 [_601__bF$buf1 _710_ _714_] _83_ d_lut_OAI21X1
ANAND2X1_22 [Mem_0__4_ _710_] _715_ d_lut_NAND2X1
AOAI21X1_19 [_603__bF$buf1 _710_ _715_] _84_ d_lut_OAI21X1
ANAND2X1_23 [Mem_0__5_ _710_] _716_ d_lut_NAND2X1
AOAI21X1_20 [_605__bF$buf1 _710_ _716_] _85_ d_lut_OAI21X1
ANAND2X1_24 [Mem_0__6_ _710_] _717_ d_lut_NAND2X1
AOAI21X1_21 [_607__bF$buf1 _710_ _717_] _86_ d_lut_OAI21X1
ANAND2X1_25 [Mem_0__7_ _710_] _718_ d_lut_NAND2X1
AOAI21X1_22 [_609__bF$buf1 _710_ _718_] _87_ d_lut_OAI21X1
ANAND2X1_26 [_590_ _635_] _719_ d_lut_NAND2X1
ANAND2X1_27 [Mem_8__0_ _719_] _720_ d_lut_NAND2X1
AOAI21X1_23 [_587__bF$buf1 _719_ _720_] _88_ d_lut_OAI21X1
ANAND2X1_28 [Mem_8__1_ _719_] _721_ d_lut_NAND2X1
AOAI21X1_24 [_597__bF$buf1 _719_ _721_] _89_ d_lut_OAI21X1
ANAND2X1_29 [Mem_8__2_ _719_] _722_ d_lut_NAND2X1
AOAI21X1_25 [_599__bF$buf0 _719_ _722_] _90_ d_lut_OAI21X1
ANAND2X1_30 [Mem_8__3_ _719_] _723_ d_lut_NAND2X1
AOAI21X1_26 [_601__bF$buf0 _719_ _723_] _91_ d_lut_OAI21X1
ANAND2X1_31 [Mem_8__4_ _719_] _724_ d_lut_NAND2X1
AOAI21X1_27 [_603__bF$buf0 _719_ _724_] _92_ d_lut_OAI21X1
ANAND2X1_32 [Mem_8__5_ _719_] _725_ d_lut_NAND2X1
AOAI21X1_28 [_605__bF$buf0 _719_ _725_] _93_ d_lut_OAI21X1
ANAND2X1_33 [Mem_8__6_ _719_] _726_ d_lut_NAND2X1
AOAI21X1_29 [_607__bF$buf0 _719_ _726_] _94_ d_lut_OAI21X1
ANAND2X1_34 [Mem_8__7_ _719_] _727_ d_lut_NAND2X1
AOAI21X1_30 [_609__bF$buf0 _719_ _727_] _95_ d_lut_OAI21X1
AAND2X2_2 [_659_ _594_] _728_ d_lut_AND2X2
ANOR2X1_11 [Mem_29__0_ _728_] _729_ d_lut_NOR2X1
AAOI21X1_9 [_587__bF$buf0 _728_ _729_] _96_ d_lut_AOI21X1
ANOR2X1_12 [Mem_29__1_ _728_] _730_ d_lut_NOR2X1
AAOI21X1_10 [_597__bF$buf0 _728_ _730_] _97_ d_lut_AOI21X1
ANOR2X1_13 [Mem_29__2_ _728_] _731_ d_lut_NOR2X1
AAOI21X1_11 [_599__bF$buf4 _728_ _731_] _98_ d_lut_AOI21X1
ANOR2X1_14 [Mem_29__3_ _728_] _732_ d_lut_NOR2X1
AAOI21X1_12 [_601__bF$buf4 _728_ _732_] _99_ d_lut_AOI21X1
ANOR2X1_15 [Mem_29__4_ _728_] _733_ d_lut_NOR2X1
AAOI21X1_13 [_603__bF$buf4 _728_ _733_] _100_ d_lut_AOI21X1
ANOR2X1_16 [Mem_29__5_ _728_] _734_ d_lut_NOR2X1
AAOI21X1_14 [_605__bF$buf4 _728_ _734_] _101_ d_lut_AOI21X1
ANOR2X1_17 [Mem_29__6_ _728_] _735_ d_lut_NOR2X1
AAOI21X1_15 [_607__bF$buf4 _728_ _735_] _102_ d_lut_AOI21X1
ANOR2X1_18 [Mem_29__7_ _728_] _736_ d_lut_NOR2X1
AAOI21X1_16 [_609__bF$buf4 _728_ _736_] _103_ d_lut_AOI21X1
ANAND2X1_35 [_623_ _679_] _737_ d_lut_NAND2X1
ANAND2X1_36 [Mem_7__0_ _737_] _738_ d_lut_NAND2X1
AOAI21X1_31 [_587__bF$buf4 _737_ _738_] _104_ d_lut_OAI21X1
ANAND2X1_37 [Mem_7__1_ _737_] _739_ d_lut_NAND2X1
AOAI21X1_32 [_597__bF$buf4 _737_ _739_] _105_ d_lut_OAI21X1
ANAND2X1_38 [Mem_7__2_ _737_] _740_ d_lut_NAND2X1
AOAI21X1_33 [_599__bF$buf3 _737_ _740_] _106_ d_lut_OAI21X1
ANAND2X1_39 [Mem_7__3_ _737_] _741_ d_lut_NAND2X1
AOAI21X1_34 [_601__bF$buf3 _737_ _741_] _107_ d_lut_OAI21X1
ANAND2X1_40 [Mem_7__4_ _737_] _742_ d_lut_NAND2X1
AOAI21X1_35 [_603__bF$buf3 _737_ _742_] _108_ d_lut_OAI21X1
ANAND2X1_41 [Mem_7__5_ _737_] _743_ d_lut_NAND2X1
AOAI21X1_36 [_605__bF$buf3 _737_ _743_] _109_ d_lut_OAI21X1
ANAND2X1_42 [Mem_7__6_ _737_] _744_ d_lut_NAND2X1
AOAI21X1_37 [_607__bF$buf3 _737_ _744_] _110_ d_lut_OAI21X1
ANAND2X1_43 [Mem_7__7_ _737_] _745_ d_lut_NAND2X1
AOAI21X1_38 [_609__bF$buf3 _737_ _745_] _111_ d_lut_OAI21X1
ANAND2X1_44 [_594_ _679_] _746_ d_lut_NAND2X1
ANAND2X1_45 [Mem_5__0_ _746_] _747_ d_lut_NAND2X1
AOAI21X1_39 [_587__bF$buf3 _746_ _747_] _112_ d_lut_OAI21X1
ANAND2X1_46 [Mem_5__1_ _746_] _748_ d_lut_NAND2X1
AOAI21X1_40 [_597__bF$buf3 _746_ _748_] _113_ d_lut_OAI21X1
ANAND2X1_47 [Mem_5__2_ _746_] _749_ d_lut_NAND2X1
AOAI21X1_41 [_599__bF$buf2 _746_ _749_] _114_ d_lut_OAI21X1
ANAND2X1_48 [Mem_5__3_ _746_] _750_ d_lut_NAND2X1
AOAI21X1_42 [_601__bF$buf2 _746_ _750_] _115_ d_lut_OAI21X1
ANAND2X1_49 [Mem_5__4_ _746_] _751_ d_lut_NAND2X1
AOAI21X1_43 [_603__bF$buf2 _746_ _751_] _116_ d_lut_OAI21X1
ANAND2X1_50 [Mem_5__5_ _746_] _752_ d_lut_NAND2X1
AOAI21X1_44 [_605__bF$buf2 _746_ _752_] _117_ d_lut_OAI21X1
ANAND2X1_51 [Mem_5__6_ _746_] _753_ d_lut_NAND2X1
AOAI21X1_45 [_607__bF$buf2 _746_ _753_] _118_ d_lut_OAI21X1
ANAND2X1_52 [Mem_5__7_ _746_] _754_ d_lut_NAND2X1
AOAI21X1_46 [_609__bF$buf2 _746_ _754_] _119_ d_lut_OAI21X1
ANAND2X1_53 [_690_ _679_] _755_ d_lut_NAND2X1
ANAND2X1_54 [Mem_6__0_ _755_] _756_ d_lut_NAND2X1
AOAI21X1_47 [_587__bF$buf2 _755_ _756_] _120_ d_lut_OAI21X1
ANAND2X1_55 [Mem_6__1_ _755_] _757_ d_lut_NAND2X1
AOAI21X1_48 [_597__bF$buf2 _755_ _757_] _121_ d_lut_OAI21X1
ANAND2X1_56 [Mem_6__2_ _755_] _758_ d_lut_NAND2X1
AOAI21X1_49 [_599__bF$buf1 _755_ _758_] _122_ d_lut_OAI21X1
ANAND2X1_57 [Mem_6__3_ _755_] _759_ d_lut_NAND2X1
AOAI21X1_50 [_601__bF$buf1 _755_ _759_] _123_ d_lut_OAI21X1
ANAND2X1_58 [Mem_6__4_ _755_] _760_ d_lut_NAND2X1
AOAI21X1_51 [_603__bF$buf1 _755_ _760_] _124_ d_lut_OAI21X1
ANAND2X1_59 [Mem_6__5_ _755_] _761_ d_lut_NAND2X1
AOAI21X1_52 [_605__bF$buf1 _755_ _761_] _125_ d_lut_OAI21X1
ANAND2X1_60 [Mem_6__6_ _755_] _762_ d_lut_NAND2X1
AOAI21X1_53 [_607__bF$buf1 _755_ _762_] _126_ d_lut_OAI21X1
ANAND2X1_61 [Mem_6__7_ _755_] _763_ d_lut_NAND2X1
AOAI21X1_54 [_609__bF$buf1 _755_ _763_] _127_ d_lut_OAI21X1
ANAND2X1_62 [_612_ _690_] _764_ d_lut_NAND2X1
ANAND2X1_63 [Mem_14__0_ _764_] _765_ d_lut_NAND2X1
AOAI21X1_55 [_587__bF$buf1 _764_ _765_] _128_ d_lut_OAI21X1
ANAND2X1_64 [Mem_14__1_ _764_] _766_ d_lut_NAND2X1
AOAI21X1_56 [_597__bF$buf1 _764_ _766_] _129_ d_lut_OAI21X1
ANAND2X1_65 [Mem_14__2_ _764_] _767_ d_lut_NAND2X1
AOAI21X1_57 [_599__bF$buf0 _764_ _767_] _130_ d_lut_OAI21X1
ANAND2X1_66 [Mem_14__3_ _764_] _768_ d_lut_NAND2X1
AOAI21X1_58 [_601__bF$buf0 _764_ _768_] _131_ d_lut_OAI21X1
ANAND2X1_67 [Mem_14__4_ _764_] _769_ d_lut_NAND2X1
AOAI21X1_59 [_603__bF$buf0 _764_ _769_] _132_ d_lut_OAI21X1
ANAND2X1_68 [Mem_14__5_ _764_] _770_ d_lut_NAND2X1
AOAI21X1_60 [_605__bF$buf0 _764_ _770_] _133_ d_lut_OAI21X1
ANAND2X1_69 [Mem_14__6_ _764_] _771_ d_lut_NAND2X1
AOAI21X1_61 [_607__bF$buf0 _764_ _771_] _134_ d_lut_OAI21X1
ANAND2X1_70 [Mem_14__7_ _764_] _772_ d_lut_NAND2X1
AOAI21X1_62 [_609__bF$buf0 _764_ _772_] _135_ d_lut_OAI21X1
ANAND2X1_71 [_647_ _635_] _773_ d_lut_NAND2X1
ANAND2X1_72 [Mem_16__0_ _773_] _774_ d_lut_NAND2X1
AOAI21X1_63 [_587__bF$buf0 _773_ _774_] _136_ d_lut_OAI21X1
ANAND2X1_73 [Mem_16__1_ _773_] _775_ d_lut_NAND2X1
AOAI21X1_64 [_597__bF$buf0 _773_ _775_] _137_ d_lut_OAI21X1
ANAND2X1_74 [Mem_16__2_ _773_] _776_ d_lut_NAND2X1
AOAI21X1_65 [_599__bF$buf4 _773_ _776_] _138_ d_lut_OAI21X1
ANAND2X1_75 [Mem_16__3_ _773_] _777_ d_lut_NAND2X1
AOAI21X1_66 [_601__bF$buf4 _773_ _777_] _139_ d_lut_OAI21X1
ANAND2X1_76 [Mem_16__4_ _773_] _778_ d_lut_NAND2X1
AOAI21X1_67 [_603__bF$buf4 _773_ _778_] _140_ d_lut_OAI21X1
ANAND2X1_77 [Mem_16__5_ _773_] _779_ d_lut_NAND2X1
AOAI21X1_68 [_605__bF$buf4 _773_ _779_] _141_ d_lut_OAI21X1
ANAND2X1_78 [Mem_16__6_ _773_] _780_ d_lut_NAND2X1
AOAI21X1_69 [_607__bF$buf4 _773_ _780_] _142_ d_lut_OAI21X1
ANAND2X1_79 [Mem_16__7_ _773_] _781_ d_lut_NAND2X1
AOAI21X1_70 [_609__bF$buf4 _773_ _781_] _143_ d_lut_OAI21X1
ANAND2X1_80 [_594_ _647_] _782_ d_lut_NAND2X1
ANAND2X1_81 [Mem_17__0_ _782_] _783_ d_lut_NAND2X1
AOAI21X1_71 [_587__bF$buf4 _782_ _783_] _144_ d_lut_OAI21X1
ANAND2X1_82 [Mem_17__1_ _782_] _784_ d_lut_NAND2X1
AOAI21X1_72 [_597__bF$buf4 _782_ _784_] _145_ d_lut_OAI21X1
ANAND2X1_83 [Mem_17__2_ _782_] _785_ d_lut_NAND2X1
AOAI21X1_73 [_599__bF$buf3 _782_ _785_] _146_ d_lut_OAI21X1
ANAND2X1_84 [Mem_17__3_ _782_] _786_ d_lut_NAND2X1
AOAI21X1_74 [_601__bF$buf3 _782_ _786_] _147_ d_lut_OAI21X1
ANAND2X1_85 [Mem_17__4_ _782_] _787_ d_lut_NAND2X1
AOAI21X1_75 [_603__bF$buf3 _782_ _787_] _148_ d_lut_OAI21X1
ANAND2X1_86 [Mem_17__5_ _782_] _788_ d_lut_NAND2X1
AOAI21X1_76 [_605__bF$buf3 _782_ _788_] _149_ d_lut_OAI21X1
ANAND2X1_87 [Mem_17__6_ _782_] _789_ d_lut_NAND2X1
AOAI21X1_77 [_607__bF$buf3 _782_ _789_] _150_ d_lut_OAI21X1
ANAND2X1_88 [Mem_17__7_ _782_] _790_ d_lut_NAND2X1
AOAI21X1_78 [_609__bF$buf3 _782_ _790_] _151_ d_lut_OAI21X1
ANAND2X1_89 [_647_ _690_] _791_ d_lut_NAND2X1
ANAND2X1_90 [Mem_18__0_ _791_] _792_ d_lut_NAND2X1
AOAI21X1_79 [_587__bF$buf3 _791_ _792_] _152_ d_lut_OAI21X1
ANAND2X1_91 [Mem_18__1_ _791_] _793_ d_lut_NAND2X1
AOAI21X1_80 [_597__bF$buf3 _791_ _793_] _153_ d_lut_OAI21X1
ANAND2X1_92 [Mem_18__2_ _791_] _794_ d_lut_NAND2X1
AOAI21X1_81 [_599__bF$buf2 _791_ _794_] _154_ d_lut_OAI21X1
ANAND2X1_93 [Mem_18__3_ _791_] _795_ d_lut_NAND2X1
AOAI21X1_82 [_601__bF$buf2 _791_ _795_] _155_ d_lut_OAI21X1
ANAND2X1_94 [Mem_18__4_ _791_] _796_ d_lut_NAND2X1
AOAI21X1_83 [_603__bF$buf2 _791_ _796_] _156_ d_lut_OAI21X1
ANAND2X1_95 [Mem_18__5_ _791_] _797_ d_lut_NAND2X1
AOAI21X1_84 [_605__bF$buf2 _791_ _797_] _157_ d_lut_OAI21X1
ANAND2X1_96 [Mem_18__6_ _791_] _798_ d_lut_NAND2X1
AOAI21X1_85 [_607__bF$buf2 _791_ _798_] _158_ d_lut_OAI21X1
ANAND2X1_97 [Mem_18__7_ _791_] _799_ d_lut_NAND2X1
AOAI21X1_86 [_609__bF$buf2 _791_ _799_] _159_ d_lut_OAI21X1
ANAND2X1_98 [_594_ _700_] _800_ d_lut_NAND2X1
ANAND2X1_99 [Mem_1__0_ _800_] _801_ d_lut_NAND2X1
AOAI21X1_87 [_587__bF$buf2 _800_ _801_] _160_ d_lut_OAI21X1
ANAND2X1_100 [Mem_1__1_ _800_] _802_ d_lut_NAND2X1
AOAI21X1_88 [_597__bF$buf2 _800_ _802_] _161_ d_lut_OAI21X1
ANAND2X1_101 [Mem_1__2_ _800_] _803_ d_lut_NAND2X1
AOAI21X1_89 [_599__bF$buf1 _800_ _803_] _162_ d_lut_OAI21X1
ANAND2X1_102 [Mem_1__3_ _800_] _804_ d_lut_NAND2X1
AOAI21X1_90 [_601__bF$buf1 _800_ _804_] _163_ d_lut_OAI21X1
ANAND2X1_103 [Mem_1__4_ _800_] _805_ d_lut_NAND2X1
AOAI21X1_91 [_603__bF$buf1 _800_ _805_] _164_ d_lut_OAI21X1
ANAND2X1_104 [Mem_1__5_ _800_] _806_ d_lut_NAND2X1
AOAI21X1_92 [_605__bF$buf1 _800_ _806_] _165_ d_lut_OAI21X1
ANAND2X1_105 [Mem_1__6_ _800_] _807_ d_lut_NAND2X1
AOAI21X1_93 [_607__bF$buf1 _800_ _807_] _166_ d_lut_OAI21X1
ANAND2X1_106 [Mem_1__7_ _800_] _808_ d_lut_NAND2X1
AOAI21X1_94 [_609__bF$buf1 _800_ _808_] _167_ d_lut_OAI21X1
ANOR2X1_19 [_611_ _646_] _809_ d_lut_NOR2X1
ANAND2X1_107 [_809_ _635_] _810_ d_lut_NAND2X1
ANAND2X1_108 [Mem_20__0_ _810_] _811_ d_lut_NAND2X1
AOAI21X1_95 [_587__bF$buf1 _810_ _811_] _168_ d_lut_OAI21X1
ANAND2X1_109 [Mem_20__1_ _810_] _812_ d_lut_NAND2X1
AOAI21X1_96 [_597__bF$buf1 _810_ _812_] _169_ d_lut_OAI21X1
ANAND2X1_110 [Mem_20__2_ _810_] _813_ d_lut_NAND2X1
AOAI21X1_97 [_599__bF$buf0 _810_ _813_] _170_ d_lut_OAI21X1
ANAND2X1_111 [Mem_20__3_ _810_] _814_ d_lut_NAND2X1
AOAI21X1_98 [_601__bF$buf0 _810_ _814_] _171_ d_lut_OAI21X1
ANAND2X1_112 [Mem_20__4_ _810_] _815_ d_lut_NAND2X1
AOAI21X1_99 [_603__bF$buf0 _810_ _815_] _172_ d_lut_OAI21X1
ANAND2X1_113 [Mem_20__5_ _810_] _816_ d_lut_NAND2X1
AOAI21X1_100 [_605__bF$buf0 _810_ _816_] _173_ d_lut_OAI21X1
ANAND2X1_114 [Mem_20__6_ _810_] _817_ d_lut_NAND2X1
AOAI21X1_101 [_607__bF$buf0 _810_ _817_] _174_ d_lut_OAI21X1
ANAND2X1_115 [Mem_20__7_ _810_] _818_ d_lut_NAND2X1
AOAI21X1_102 [_609__bF$buf0 _810_ _818_] _175_ d_lut_OAI21X1
ANAND2X1_116 [_594_ _809_] _819_ d_lut_NAND2X1
ANAND2X1_117 [Mem_21__0_ _819_] _820_ d_lut_NAND2X1
AOAI21X1_103 [_587__bF$buf0 _819_ _820_] _176_ d_lut_OAI21X1
ANAND2X1_118 [Mem_21__1_ _819_] _821_ d_lut_NAND2X1
AOAI21X1_104 [_597__bF$buf0 _819_ _821_] _177_ d_lut_OAI21X1
ANAND2X1_119 [Mem_21__2_ _819_] _822_ d_lut_NAND2X1
AOAI21X1_105 [_599__bF$buf4 _819_ _822_] _178_ d_lut_OAI21X1
ANAND2X1_120 [Mem_21__3_ _819_] _823_ d_lut_NAND2X1
AOAI21X1_106 [_601__bF$buf4 _819_ _823_] _179_ d_lut_OAI21X1
ANAND2X1_121 [Mem_21__4_ _819_] _824_ d_lut_NAND2X1
AOAI21X1_107 [_603__bF$buf4 _819_ _824_] _180_ d_lut_OAI21X1
ANAND2X1_122 [Mem_21__5_ _819_] _825_ d_lut_NAND2X1
AOAI21X1_108 [_605__bF$buf4 _819_ _825_] _181_ d_lut_OAI21X1
ANAND2X1_123 [Mem_21__6_ _819_] _826_ d_lut_NAND2X1
AOAI21X1_109 [_607__bF$buf4 _819_ _826_] _182_ d_lut_OAI21X1
ANAND2X1_124 [Mem_21__7_ _819_] _827_ d_lut_NAND2X1
AOAI21X1_110 [_609__bF$buf4 _819_ _827_] _183_ d_lut_OAI21X1
ANAND2X1_125 [_690_ _809_] _828_ d_lut_NAND2X1
ANAND2X1_126 [Mem_22__0_ _828_] _829_ d_lut_NAND2X1
AOAI21X1_111 [_587__bF$buf4 _828_ _829_] _184_ d_lut_OAI21X1
ANAND2X1_127 [Mem_22__1_ _828_] _830_ d_lut_NAND2X1
AOAI21X1_112 [_597__bF$buf4 _828_ _830_] _185_ d_lut_OAI21X1
ANAND2X1_128 [Mem_22__2_ _828_] _831_ d_lut_NAND2X1
AOAI21X1_113 [_599__bF$buf3 _828_ _831_] _186_ d_lut_OAI21X1
ANAND2X1_129 [Mem_22__3_ _828_] _832_ d_lut_NAND2X1
AOAI21X1_114 [_601__bF$buf3 _828_ _832_] _187_ d_lut_OAI21X1
ANAND2X1_130 [Mem_22__4_ _828_] _833_ d_lut_NAND2X1
AOAI21X1_115 [_603__bF$buf3 _828_ _833_] _188_ d_lut_OAI21X1
ANAND2X1_131 [Mem_22__5_ _828_] _834_ d_lut_NAND2X1
AOAI21X1_116 [_605__bF$buf3 _828_ _834_] _189_ d_lut_OAI21X1
ANAND2X1_132 [Mem_22__6_ _828_] _835_ d_lut_NAND2X1
AOAI21X1_117 [_607__bF$buf3 _828_ _835_] _190_ d_lut_OAI21X1
ANAND2X1_133 [Mem_22__7_ _828_] _836_ d_lut_NAND2X1
AOAI21X1_118 [_609__bF$buf3 _828_ _836_] _191_ d_lut_OAI21X1
ANAND2X1_134 [_623_ _809_] _837_ d_lut_NAND2X1
ANAND2X1_135 [Mem_23__0_ _837_] _838_ d_lut_NAND2X1
AOAI21X1_119 [_587__bF$buf3 _837_ _838_] _192_ d_lut_OAI21X1
ANAND2X1_136 [Mem_23__1_ _837_] _839_ d_lut_NAND2X1
AOAI21X1_120 [_597__bF$buf3 _837_ _839_] _193_ d_lut_OAI21X1
ANAND2X1_137 [Mem_23__2_ _837_] _840_ d_lut_NAND2X1
AOAI21X1_121 [_599__bF$buf2 _837_ _840_] _194_ d_lut_OAI21X1
ANAND2X1_138 [Mem_23__3_ _837_] _841_ d_lut_NAND2X1
AOAI21X1_122 [_601__bF$buf2 _837_ _841_] _195_ d_lut_OAI21X1
ANAND2X1_139 [Mem_23__4_ _837_] _842_ d_lut_NAND2X1
AOAI21X1_123 [_603__bF$buf2 _837_ _842_] _196_ d_lut_OAI21X1
ANAND2X1_140 [Mem_23__5_ _837_] _843_ d_lut_NAND2X1
AOAI21X1_124 [_605__bF$buf2 _837_ _843_] _197_ d_lut_OAI21X1
ANAND2X1_141 [Mem_23__6_ _837_] _844_ d_lut_NAND2X1
AOAI21X1_125 [_607__bF$buf2 _837_ _844_] _198_ d_lut_OAI21X1
ANAND2X1_142 [Mem_23__7_ _837_] _264_ d_lut_NAND2X1
AOAI21X1_126 [_609__bF$buf2 _837_ _264_] _199_ d_lut_OAI21X1
ANOR2X1_20 [address_2_ _657_] _265_ d_lut_NOR2X1
ANAND2X1_143 [_265_ _635_] _266_ d_lut_NAND2X1
ANAND2X1_144 [Mem_24__0_ _266_] _267_ d_lut_NAND2X1
AOAI21X1_127 [_587__bF$buf2 _266_ _267_] _200_ d_lut_OAI21X1
ANAND2X1_145 [Mem_24__1_ _266_] _268_ d_lut_NAND2X1
AOAI21X1_128 [_597__bF$buf2 _266_ _268_] _201_ d_lut_OAI21X1
ANAND2X1_146 [Mem_24__2_ _266_] _269_ d_lut_NAND2X1
AOAI21X1_129 [_599__bF$buf1 _266_ _269_] _202_ d_lut_OAI21X1
ANAND2X1_147 [Mem_24__3_ _266_] _270_ d_lut_NAND2X1
AOAI21X1_130 [_601__bF$buf1 _266_ _270_] _203_ d_lut_OAI21X1
ANAND2X1_148 [Mem_24__4_ _266_] _271_ d_lut_NAND2X1
AOAI21X1_131 [_603__bF$buf1 _266_ _271_] _204_ d_lut_OAI21X1
ANAND2X1_149 [Mem_24__5_ _266_] _272_ d_lut_NAND2X1
AOAI21X1_132 [_605__bF$buf1 _266_ _272_] _205_ d_lut_OAI21X1
ANAND2X1_150 [Mem_24__6_ _266_] _273_ d_lut_NAND2X1
AOAI21X1_133 [_607__bF$buf1 _266_ _273_] _206_ d_lut_OAI21X1
ANAND2X1_151 [Mem_24__7_ _266_] _274_ d_lut_NAND2X1
AOAI21X1_134 [_609__bF$buf1 _266_ _274_] _207_ d_lut_OAI21X1
ANAND2X1_152 [_265_ _594_] _275_ d_lut_NAND2X1
ANAND2X1_153 [Mem_25__0_ _275_] _276_ d_lut_NAND2X1
AOAI21X1_135 [_587__bF$buf1 _275_ _276_] _208_ d_lut_OAI21X1
ANAND2X1_154 [Mem_25__1_ _275_] _277_ d_lut_NAND2X1
AOAI21X1_136 [_597__bF$buf1 _275_ _277_] _209_ d_lut_OAI21X1
ANAND2X1_155 [Mem_25__2_ _275_] _278_ d_lut_NAND2X1
AOAI21X1_137 [_599__bF$buf0 _275_ _278_] _210_ d_lut_OAI21X1
ANAND2X1_156 [Mem_25__3_ _275_] _279_ d_lut_NAND2X1
AOAI21X1_138 [_601__bF$buf0 _275_ _279_] _211_ d_lut_OAI21X1
ANAND2X1_157 [Mem_25__4_ _275_] _280_ d_lut_NAND2X1
AOAI21X1_139 [_603__bF$buf0 _275_ _280_] _212_ d_lut_OAI21X1
ANAND2X1_158 [Mem_25__5_ _275_] _281_ d_lut_NAND2X1
AOAI21X1_140 [_605__bF$buf0 _275_ _281_] _213_ d_lut_OAI21X1
ANAND2X1_159 [Mem_25__6_ _275_] _282_ d_lut_NAND2X1
AOAI21X1_141 [_607__bF$buf0 _275_ _282_] _214_ d_lut_OAI21X1
ANAND2X1_160 [Mem_25__7_ _275_] _283_ d_lut_NAND2X1
AOAI21X1_142 [_609__bF$buf0 _275_ _283_] _215_ d_lut_OAI21X1
ANAND2X1_161 [_265_ _690_] _284_ d_lut_NAND2X1
ANAND2X1_162 [Mem_26__0_ _284_] _285_ d_lut_NAND2X1
AOAI21X1_143 [_587__bF$buf0 _284_ _285_] _216_ d_lut_OAI21X1
ANAND2X1_163 [Mem_26__1_ _284_] _286_ d_lut_NAND2X1
AOAI21X1_144 [_597__bF$buf0 _284_ _286_] _217_ d_lut_OAI21X1
ANAND2X1_164 [Mem_26__2_ _284_] _287_ d_lut_NAND2X1
AOAI21X1_145 [_599__bF$buf4 _284_ _287_] _218_ d_lut_OAI21X1
ANAND2X1_165 [Mem_26__3_ _284_] _288_ d_lut_NAND2X1
AOAI21X1_146 [_601__bF$buf4 _284_ _288_] _219_ d_lut_OAI21X1
ANAND2X1_166 [Mem_26__4_ _284_] _289_ d_lut_NAND2X1
AOAI21X1_147 [_603__bF$buf4 _284_ _289_] _220_ d_lut_OAI21X1
ANAND2X1_167 [Mem_26__5_ _284_] _290_ d_lut_NAND2X1
AOAI21X1_148 [_605__bF$buf4 _284_ _290_] _221_ d_lut_OAI21X1
ANAND2X1_168 [Mem_26__6_ _284_] _291_ d_lut_NAND2X1
AOAI21X1_149 [_607__bF$buf4 _284_ _291_] _222_ d_lut_OAI21X1
ANAND2X1_169 [Mem_26__7_ _284_] _292_ d_lut_NAND2X1
AOAI21X1_150 [_609__bF$buf4 _284_ _292_] _223_ d_lut_OAI21X1
ANAND2X1_170 [_265_ _623_] _293_ d_lut_NAND2X1
ANAND2X1_171 [Mem_27__0_ _293_] _294_ d_lut_NAND2X1
AOAI21X1_151 [_587__bF$buf4 _293_ _294_] _224_ d_lut_OAI21X1
ANAND2X1_172 [Mem_27__1_ _293_] _295_ d_lut_NAND2X1
AOAI21X1_152 [_597__bF$buf4 _293_ _295_] _225_ d_lut_OAI21X1
ANAND2X1_173 [Mem_27__2_ _293_] _296_ d_lut_NAND2X1
AOAI21X1_153 [_599__bF$buf3 _293_ _296_] _226_ d_lut_OAI21X1
ANAND2X1_174 [Mem_27__3_ _293_] _297_ d_lut_NAND2X1
AOAI21X1_154 [_601__bF$buf3 _293_ _297_] _227_ d_lut_OAI21X1
ANAND2X1_175 [Mem_27__4_ _293_] _298_ d_lut_NAND2X1
AOAI21X1_155 [_603__bF$buf3 _293_ _298_] _228_ d_lut_OAI21X1
ANAND2X1_176 [Mem_27__5_ _293_] _299_ d_lut_NAND2X1
AOAI21X1_156 [_605__bF$buf3 _293_ _299_] _229_ d_lut_OAI21X1
ANAND2X1_177 [Mem_27__6_ _293_] _300_ d_lut_NAND2X1
AOAI21X1_157 [_607__bF$buf3 _293_ _300_] _230_ d_lut_OAI21X1
ANAND2X1_178 [Mem_27__7_ _293_] _301_ d_lut_NAND2X1
AOAI21X1_158 [_609__bF$buf3 _293_ _301_] _231_ d_lut_OAI21X1
ANAND2X1_179 [_635_ _659_] _302_ d_lut_NAND2X1
ANAND2X1_180 [Mem_28__0_ _302_] _303_ d_lut_NAND2X1
AOAI21X1_159 [_587__bF$buf3 _302_ _303_] _232_ d_lut_OAI21X1
ANAND2X1_181 [Mem_28__1_ _302_] _304_ d_lut_NAND2X1
AOAI21X1_160 [_597__bF$buf3 _302_ _304_] _233_ d_lut_OAI21X1
ANAND2X1_182 [Mem_28__2_ _302_] _305_ d_lut_NAND2X1
AOAI21X1_161 [_599__bF$buf2 _302_ _305_] _234_ d_lut_OAI21X1
ANAND2X1_183 [Mem_28__3_ _302_] _306_ d_lut_NAND2X1
AOAI21X1_162 [_601__bF$buf2 _302_ _306_] _235_ d_lut_OAI21X1
ANAND2X1_184 [Mem_28__4_ _302_] _307_ d_lut_NAND2X1
AOAI21X1_163 [_603__bF$buf2 _302_ _307_] _236_ d_lut_OAI21X1
ANAND2X1_185 [Mem_28__5_ _302_] _308_ d_lut_NAND2X1
AOAI21X1_164 [_605__bF$buf2 _302_ _308_] _237_ d_lut_OAI21X1
ANAND2X1_186 [Mem_28__6_ _302_] _309_ d_lut_NAND2X1
AOAI21X1_165 [_607__bF$buf2 _302_ _309_] _238_ d_lut_OAI21X1
ANAND2X1_187 [Mem_28__7_ _302_] _310_ d_lut_NAND2X1
AOAI21X1_166 [_609__bF$buf2 _302_ _310_] _239_ d_lut_OAI21X1
ANAND2X1_188 [_690_ _700_] _311_ d_lut_NAND2X1
ANAND2X1_189 [Mem_2__0_ _311_] _312_ d_lut_NAND2X1
AOAI21X1_167 [_587__bF$buf2 _311_ _312_] _240_ d_lut_OAI21X1
ANAND2X1_190 [Mem_2__1_ _311_] _313_ d_lut_NAND2X1
AOAI21X1_168 [_597__bF$buf2 _311_ _313_] _241_ d_lut_OAI21X1
ANAND2X1_191 [Mem_2__2_ _311_] _314_ d_lut_NAND2X1
AOAI21X1_169 [_599__bF$buf1 _311_ _314_] _242_ d_lut_OAI21X1
ANAND2X1_192 [Mem_2__3_ _311_] _315_ d_lut_NAND2X1
AOAI21X1_170 [_601__bF$buf1 _311_ _315_] _243_ d_lut_OAI21X1
ANAND2X1_193 [Mem_2__4_ _311_] _316_ d_lut_NAND2X1
AOAI21X1_171 [_603__bF$buf1 _311_ _316_] _244_ d_lut_OAI21X1
ANAND2X1_194 [Mem_2__5_ _311_] _317_ d_lut_NAND2X1
AOAI21X1_172 [_605__bF$buf1 _311_ _317_] _245_ d_lut_OAI21X1
ANAND2X1_195 [Mem_2__6_ _311_] _318_ d_lut_NAND2X1
AOAI21X1_173 [_607__bF$buf1 _311_ _318_] _246_ d_lut_OAI21X1
ANAND2X1_196 [Mem_2__7_ _311_] _319_ d_lut_NAND2X1
AOAI21X1_174 [_609__bF$buf1 _311_ _319_] _247_ d_lut_OAI21X1
AAND2X2_3 [_659_ _690_] _320_ d_lut_AND2X2
ANOR2X1_21 [Mem_30__0_ _320_] _321_ d_lut_NOR2X1
AAOI21X1_17 [_587__bF$buf1 _320_ _321_] _248_ d_lut_AOI21X1
ANOR2X1_22 [Mem_30__1_ _320_] _322_ d_lut_NOR2X1
AAOI21X1_18 [_597__bF$buf1 _320_ _322_] _249_ d_lut_AOI21X1
ANOR2X1_23 [Mem_30__2_ _320_] _323_ d_lut_NOR2X1
AAOI21X1_19 [_599__bF$buf0 _320_ _323_] _250_ d_lut_AOI21X1
ANOR2X1_24 [Mem_30__3_ _320_] _324_ d_lut_NOR2X1
AAOI21X1_20 [_601__bF$buf0 _320_ _324_] _251_ d_lut_AOI21X1
ANOR2X1_25 [Mem_30__4_ _320_] _325_ d_lut_NOR2X1
AAOI21X1_21 [_603__bF$buf0 _320_ _325_] _252_ d_lut_AOI21X1
ANOR2X1_26 [Mem_30__5_ _320_] _326_ d_lut_NOR2X1
AAOI21X1_22 [_605__bF$buf0 _320_ _326_] _253_ d_lut_AOI21X1
ANOR2X1_27 [Mem_30__6_ _320_] _327_ d_lut_NOR2X1
AAOI21X1_23 [_607__bF$buf0 _320_ _327_] _254_ d_lut_AOI21X1
ANOR2X1_28 [Mem_30__7_ _320_] _328_ d_lut_NOR2X1
AAOI21X1_24 [_609__bF$buf0 _320_ _328_] _255_ d_lut_AOI21X1
AINVX4_1 [enable] _329_ d_lut_INVX4
ANAND2X1_197 [r_w _845__0_] _330_ d_lut_NAND2X1
AINVX4_2 [r_w] _331_ d_lut_INVX4
AMUX2X1_1 [Mem_1__0_ Mem_0__0_ address_0_bF$buf10_] _332_ d_lut_MUX2X1
AMUX2X1_2 [Mem_3__0_ Mem_2__0_ address_0_bF$buf9_] _333_ d_lut_MUX2X1
AMUX2X1_3 [_333_ _332_ address_1_bF$buf6_] _334_ d_lut_MUX2X1
AMUX2X1_4 [Mem_5__0_ Mem_4__0_ address_0_bF$buf8_] _335_ d_lut_MUX2X1
AMUX2X1_5 [Mem_7__0_ Mem_6__0_ address_0_bF$buf7_] _336_ d_lut_MUX2X1
AMUX2X1_6 [_336_ _335_ address_1_bF$buf5_] _337_ d_lut_MUX2X1
AAOI22X1_1 [_334_ _700_ _679_ _337_] _338_ d_lut_AOI22X1
AMUX2X1_7 [Mem_9__0_ Mem_8__0_ address_0_bF$buf6_] _339_ d_lut_MUX2X1
AMUX2X1_8 [Mem_11__0_ Mem_10__0_ address_0_bF$buf5_] _340_ d_lut_MUX2X1
AMUX2X1_9 [_340_ _339_ address_1_bF$buf4_] _341_ d_lut_MUX2X1