*SPICE netlist created from BLIF module ram32_sdram_3split by blif2BSpice
.include /usr/local/share/qflow/tech/osu018/osu018_stdcells.sp
.subckt ram32_sdram_3split vdd gnd en rw clk ras cas vas datain[0] datain[1] datain[2] datain[3] datain[4] datain[5] datain[6] datain[7] address[0] address[1] address[2] address[3] address[4] dataout[0] dataout[1] dataout[2] dataout[3] dataout[4] dataout[5] dataout[6] dataout[7] 
XBUFX4_1 vdd gnd _547_ _547__bF$buf3 BUFX4
XBUFX4_2 vdd gnd _547_ _547__bF$buf2 BUFX4
XBUFX4_3 vdd gnd _547_ _547__bF$buf1 BUFX4
XBUFX4_4 vdd gnd _547_ _547__bF$buf0 BUFX4
XBUFX4_5 vdd gnd _573_ _573__bF$buf3 BUFX4
XBUFX4_6 vdd gnd _573_ _573__bF$buf2 BUFX4
XBUFX4_7 vdd gnd _573_ _573__bF$buf1 BUFX4
XBUFX4_8 vdd gnd _573_ _573__bF$buf0 BUFX4
XBUFX4_9 vdd gnd _532_ _532__bF$buf5 BUFX4
XBUFX4_10 vdd gnd _532_ _532__bF$buf4 BUFX4
XBUFX4_11 vdd gnd _532_ _532__bF$buf3 BUFX4
XBUFX4_12 vdd gnd _532_ _532__bF$buf2 BUFX4
XBUFX4_13 vdd gnd _532_ _532__bF$buf1 BUFX4
XBUFX4_14 vdd gnd _532_ _532__bF$buf0 BUFX4
XCLKBUF1_1 clk vdd gnd clk_bF$buf13 CLKBUF1
XCLKBUF1_2 clk vdd gnd clk_bF$buf12 CLKBUF1
XCLKBUF1_3 clk vdd gnd clk_bF$buf11 CLKBUF1
XCLKBUF1_4 clk vdd gnd clk_bF$buf10 CLKBUF1
XCLKBUF1_5 clk vdd gnd clk_bF$buf9 CLKBUF1
XCLKBUF1_6 clk vdd gnd clk_bF$buf8 CLKBUF1
XCLKBUF1_7 clk vdd gnd clk_bF$buf7 CLKBUF1
XCLKBUF1_8 clk vdd gnd clk_bF$buf6 CLKBUF1
XCLKBUF1_9 clk vdd gnd clk_bF$buf5 CLKBUF1
XCLKBUF1_10 clk vdd gnd clk_bF$buf4 CLKBUF1
XCLKBUF1_11 clk vdd gnd clk_bF$buf3 CLKBUF1
XCLKBUF1_12 clk vdd gnd clk_bF$buf2 CLKBUF1
XCLKBUF1_13 clk vdd gnd clk_bF$buf1 CLKBUF1
XCLKBUF1_14 clk vdd gnd clk_bF$buf0 CLKBUF1
XBUFX4_15 vdd gnd vertical_address[0] vertical_address[0_bF$buf8] BUFX4
XBUFX4_16 vdd gnd vertical_address[0] vertical_address[0_bF$buf7] BUFX4
XBUFX4_17 vdd gnd vertical_address[0] vertical_address[0_bF$buf6] BUFX4
XBUFX4_18 vdd gnd vertical_address[0] vertical_address[0_bF$buf5] BUFX4
XBUFX4_19 vdd gnd vertical_address[0] vertical_address[0_bF$buf4] BUFX4
XBUFX4_20 vdd gnd vertical_address[0] vertical_address[0_bF$buf3] BUFX4
XBUFX4_21 vdd gnd vertical_address[0] vertical_address[0_bF$buf2] BUFX4
XBUFX4_22 vdd gnd vertical_address[0] vertical_address[0_bF$buf1] BUFX4
XBUFX4_23 vdd gnd vertical_address[0] vertical_address[0_bF$buf0] BUFX4
XBUFX4_24 vdd gnd _555_ _555__bF$buf3 BUFX4
XBUFX4_25 vdd gnd _555_ _555__bF$buf2 BUFX4
XBUFX4_26 vdd gnd _555_ _555__bF$buf1 BUFX4
XBUFX4_27 vdd gnd _555_ _555__bF$buf0 BUFX4
XBUFX4_28 vdd gnd _549_ _549__bF$buf3 BUFX4
XBUFX4_29 vdd gnd _549_ _549__bF$buf2 BUFX4
XBUFX4_30 vdd gnd _549_ _549__bF$buf1 BUFX4
XBUFX4_31 vdd gnd _549_ _549__bF$buf0 BUFX4
XBUFX4_32 vdd gnd _531_ _531__bF$buf3 BUFX4
XBUFX4_33 vdd gnd _531_ _531__bF$buf2 BUFX4
XBUFX4_34 vdd gnd _531_ _531__bF$buf1 BUFX4
XBUFX4_35 vdd gnd _531_ _531__bF$buf0 BUFX4
XBUFX4_36 vdd gnd _528_ _528__bF$buf3 BUFX4
XBUFX4_37 vdd gnd _528_ _528__bF$buf2 BUFX4
XBUFX4_38 vdd gnd _528_ _528__bF$buf1 BUFX4
XBUFX4_39 vdd gnd _528_ _528__bF$buf0 BUFX4
XBUFX4_40 vdd gnd _557_ _557__bF$buf3 BUFX4
XBUFX4_41 vdd gnd _557_ _557__bF$buf2 BUFX4
XBUFX4_42 vdd gnd _557_ _557__bF$buf1 BUFX4
XBUFX4_43 vdd gnd _557_ _557__bF$buf0 BUFX4
XBUFX4_44 vdd gnd _651_ _651__bF$buf3 BUFX4
XBUFX4_45 vdd gnd _651_ _651__bF$buf2 BUFX4
XBUFX4_46 vdd gnd _651_ _651__bF$buf1 BUFX4
XBUFX4_47 vdd gnd _651_ _651__bF$buf0 BUFX4
XBUFX4_48 vdd gnd _589_ _589__bF$buf4 BUFX4
XBUFX4_49 vdd gnd _589_ _589__bF$buf3 BUFX4
XBUFX4_50 vdd gnd _589_ _589__bF$buf2 BUFX4
XBUFX4_51 vdd gnd _589_ _589__bF$buf1 BUFX4
XBUFX4_52 vdd gnd _589_ _589__bF$buf0 BUFX4
XBUFX4_53 vdd gnd _551_ _551__bF$buf3 BUFX4
XBUFX4_54 vdd gnd _551_ _551__bF$buf2 BUFX4
XBUFX4_55 vdd gnd _551_ _551__bF$buf1 BUFX4
XBUFX4_56 vdd gnd _551_ _551__bF$buf0 BUFX4
XBUFX4_57 vdd gnd _545_ _545__bF$buf3 BUFX4
XBUFX4_58 vdd gnd _545_ _545__bF$buf2 BUFX4
XBUFX4_59 vdd gnd _545_ _545__bF$buf1 BUFX4
XBUFX4_60 vdd gnd _545_ _545__bF$buf0 BUFX4
XBUFX4_61 vdd gnd _539_ _539__bF$buf3 BUFX4
XBUFX4_62 vdd gnd _539_ _539__bF$buf2 BUFX4
XBUFX4_63 vdd gnd _539_ _539__bF$buf1 BUFX4
XBUFX4_64 vdd gnd _539_ _539__bF$buf0 BUFX4
XBUFX4_65 vdd gnd _533_ _533__bF$buf3 BUFX4
XBUFX4_66 vdd gnd _533_ _533__bF$buf2 BUFX4
XBUFX4_67 vdd gnd _533_ _533__bF$buf1 BUFX4
XBUFX4_68 vdd gnd _533_ _533__bF$buf0 BUFX4
XBUFX4_69 vdd gnd _553_ _553__bF$buf3 BUFX4
XBUFX4_70 vdd gnd _553_ _553__bF$buf2 BUFX4
XBUFX4_71 vdd gnd _553_ _553__bF$buf1 BUFX4
XBUFX4_72 vdd gnd _553_ _553__bF$buf0 BUFX4
XOAI21X1_1 gnd vdd _528__bF$buf1 _660_ _80_ _661_ OAI21X1
XNAND2X1_1 vdd _662_ gnd Mem[17][1] _660_ NAND2X1
XOAI21X1_2 gnd vdd _545__bF$buf2 _660_ _81_ _662_ OAI21X1
XNAND2X1_2 vdd _663_ gnd Mem[17][2] _660_ NAND2X1
XOAI21X1_3 gnd vdd _547__bF$buf1 _660_ _82_ _663_ OAI21X1
XNAND2X1_3 vdd _664_ gnd Mem[17][3] _660_ NAND2X1
XOAI21X1_4 gnd vdd _549__bF$buf3 _660_ _83_ _664_ OAI21X1
XNAND2X1_4 vdd _665_ gnd Mem[17][4] _660_ NAND2X1
XOAI21X1_5 gnd vdd _551__bF$buf0 _660_ _84_ _665_ OAI21X1
XNAND2X1_5 vdd _666_ gnd Mem[17][5] _660_ NAND2X1
XOAI21X1_6 gnd vdd _553__bF$buf2 _660_ _85_ _666_ OAI21X1
XNAND2X1_6 vdd _667_ gnd Mem[17][6] _660_ NAND2X1
XOAI21X1_7 gnd vdd _555__bF$buf1 _660_ _86_ _667_ OAI21X1
XNAND2X1_7 vdd _668_ gnd Mem[17][7] _660_ NAND2X1
XOAI21X1_8 gnd vdd _557__bF$buf1 _660_ _87_ _668_ OAI21X1
XNAND3X1_1 _542_ vdd gnd _539__bF$buf3 _574_ _669_ NAND3X1
XNAND2X1_8 vdd _670_ gnd Mem[8][0] _669_ NAND2X1
XOAI21X1_9 gnd vdd _528__bF$buf3 _669_ _88_ _670_ OAI21X1
XNAND2X1_9 vdd _671_ gnd Mem[8][1] _669_ NAND2X1
XOAI21X1_10 gnd vdd _545__bF$buf2 _669_ _89_ _671_ OAI21X1
XNAND2X1_10 vdd _672_ gnd Mem[8][2] _669_ NAND2X1
XOAI21X1_11 gnd vdd _547__bF$buf2 _669_ _90_ _672_ OAI21X1
XNAND2X1_11 vdd _673_ gnd Mem[8][3] _669_ NAND2X1
XOAI21X1_12 gnd vdd _549__bF$buf0 _669_ _91_ _673_ OAI21X1
XNAND2X1_12 vdd _674_ gnd Mem[8][4] _669_ NAND2X1
XOAI21X1_13 gnd vdd _551__bF$buf1 _669_ _92_ _674_ OAI21X1
XNAND2X1_13 vdd _675_ gnd Mem[8][5] _669_ NAND2X1
XOAI21X1_14 gnd vdd _553__bF$buf3 _669_ _93_ _675_ OAI21X1
XNAND2X1_14 vdd _676_ gnd Mem[8][6] _669_ NAND2X1
XOAI21X1_15 gnd vdd _555__bF$buf3 _669_ _94_ _676_ OAI21X1
XNAND2X1_15 vdd _677_ gnd Mem[8][7] _669_ NAND2X1
XOAI21X1_16 gnd vdd _557__bF$buf0 _669_ _95_ _677_ OAI21X1
XNAND3X1_2 _611_ vdd gnd _539__bF$buf2 _574_ _678_ NAND3X1
XNAND2X1_16 vdd _679_ gnd Mem[16][0] _678_ NAND2X1
XOAI21X1_17 gnd vdd _528__bF$buf1 _678_ _96_ _679_ OAI21X1
XNAND2X1_17 vdd _680_ gnd Mem[16][1] _678_ NAND2X1
XOAI21X1_18 gnd vdd _545__bF$buf0 _678_ _97_ _680_ OAI21X1
XNAND2X1_18 vdd _681_ gnd Mem[16][2] _678_ NAND2X1
XOAI21X1_19 gnd vdd _547__bF$buf1 _678_ _98_ _681_ OAI21X1
XNAND2X1_19 vdd _682_ gnd Mem[16][3] _678_ NAND2X1
XOAI21X1_20 gnd vdd _549__bF$buf3 _678_ _99_ _682_ OAI21X1
XNAND2X1_20 vdd _683_ gnd Mem[16][4] _678_ NAND2X1
XOAI21X1_21 gnd vdd _551__bF$buf0 _678_ _100_ _683_ OAI21X1
XNAND2X1_21 vdd _684_ gnd Mem[16][5] _678_ NAND2X1
XOAI21X1_22 gnd vdd _553__bF$buf2 _678_ _101_ _684_ OAI21X1
XNAND2X1_22 vdd _685_ gnd Mem[16][6] _678_ NAND2X1
XOAI21X1_23 gnd vdd _555__bF$buf1 _678_ _102_ _685_ OAI21X1
XNAND2X1_23 vdd _686_ gnd Mem[16][7] _678_ NAND2X1
XOAI21X1_24 gnd vdd _557__bF$buf1 _678_ _103_ _686_ OAI21X1
XNOR2X1_1 vdd _559_ gnd _687_ _541_ NOR2X1
XNAND3X1_3 _687_ vdd gnd _539__bF$buf0 _534_ _688_ NAND3X1
XNAND2X1_24 vdd _689_ gnd Mem[13][0] _688_ NAND2X1
XOAI21X1_25 gnd vdd _528__bF$buf2 _688_ _104_ _689_ OAI21X1
XNAND2X1_25 vdd _690_ gnd Mem[13][1] _688_ NAND2X1
XOAI21X1_26 gnd vdd _545__bF$buf0 _688_ _105_ _690_ OAI21X1
XNAND2X1_26 vdd _691_ gnd Mem[13][2] _688_ NAND2X1
XOAI21X1_27 gnd vdd _547__bF$buf3 _688_ _106_ _691_ OAI21X1
XNAND2X1_27 vdd _692_ gnd Mem[13][3] _688_ NAND2X1
XOAI21X1_28 gnd vdd _549__bF$buf1 _688_ _107_ _692_ OAI21X1
XNAND2X1_28 vdd _693_ gnd Mem[13][4] _688_ NAND2X1
XOAI21X1_29 gnd vdd _551__bF$buf3 _688_ _108_ _693_ OAI21X1
XNAND2X1_29 vdd _694_ gnd Mem[13][5] _688_ NAND2X1
XOAI21X1_30 gnd vdd _553__bF$buf3 _688_ _109_ _694_ OAI21X1
XNAND2X1_30 vdd _695_ gnd Mem[13][6] _688_ NAND2X1
XOAI21X1_31 gnd vdd _555__bF$buf3 _688_ _110_ _695_ OAI21X1
XNAND2X1_31 vdd _696_ gnd Mem[13][7] _688_ NAND2X1
XOAI21X1_32 gnd vdd _557__bF$buf0 _688_ _111_ _696_ OAI21X1
XNAND3X1_4 _687_ vdd gnd _539__bF$buf0 _574_ _697_ NAND3X1
XNAND2X1_32 vdd _698_ gnd Mem[12][0] _697_ NAND2X1
XOAI21X1_33 gnd vdd _528__bF$buf2 _697_ _112_ _698_ OAI21X1
XNAND2X1_33 vdd _699_ gnd Mem[12][1] _697_ NAND2X1
XOAI21X1_34 gnd vdd _545__bF$buf3 _697_ _113_ _699_ OAI21X1
XNAND2X1_34 vdd _700_ gnd Mem[12][2] _697_ NAND2X1
XOAI21X1_35 gnd vdd _547__bF$buf2 _697_ _114_ _700_ OAI21X1
XNAND2X1_35 vdd _701_ gnd Mem[12][3] _697_ NAND2X1
XOAI21X1_36 gnd vdd _549__bF$buf1 _697_ _115_ _701_ OAI21X1
XNAND2X1_36 vdd _702_ gnd Mem[12][4] _697_ NAND2X1
XOAI21X1_37 gnd vdd _551__bF$buf0 _697_ _116_ _702_ OAI21X1
XNAND2X1_37 vdd _703_ gnd Mem[12][5] _697_ NAND2X1
XOAI21X1_38 gnd vdd _553__bF$buf1 _697_ _117_ _703_ OAI21X1
XNAND2X1_38 vdd _704_ gnd Mem[12][6] _697_ NAND2X1
XOAI21X1_39 gnd vdd _555__bF$buf0 _697_ _118_ _704_ OAI21X1
XNAND2X1_39 vdd _705_ gnd Mem[12][7] _697_ NAND2X1
XOAI21X1_40 gnd vdd _557__bF$buf0 _697_ _119_ _705_ OAI21X1
XNOR2X1_2 vdd _559_ gnd _706_ _598_ NOR2X1
XNAND3X1_5 _706_ vdd gnd _539__bF$buf0 _534_ _707_ NAND3X1
XNAND2X1_40 vdd _708_ gnd Mem[5][0] _707_ NAND2X1
XOAI21X1_41 gnd vdd _528__bF$buf2 _707_ _120_ _708_ OAI21X1
XNAND2X1_41 vdd _709_ gnd Mem[5][1] _707_ NAND2X1
XOAI21X1_42 gnd vdd _545__bF$buf3 _707_ _121_ _709_ OAI21X1
XNAND2X1_42 vdd _710_ gnd Mem[5][2] _707_ NAND2X1
XOAI21X1_43 gnd vdd _547__bF$buf0 _707_ _122_ _710_ OAI21X1
XNAND2X1_43 vdd _711_ gnd Mem[5][3] _707_ NAND2X1
XOAI21X1_44 gnd vdd _549__bF$buf1 _707_ _123_ _711_ OAI21X1
XNAND2X1_44 vdd _712_ gnd Mem[5][4] _707_ NAND2X1
XOAI21X1_45 gnd vdd _551__bF$buf3 _707_ _124_ _712_ OAI21X1
XNAND2X1_45 vdd _713_ gnd Mem[5][5] _707_ NAND2X1
XOAI21X1_46 gnd vdd _553__bF$buf1 _707_ _125_ _713_ OAI21X1
XNAND2X1_46 vdd _714_ gnd Mem[5][6] _707_ NAND2X1
XOAI21X1_47 gnd vdd _555__bF$buf0 _707_ _126_ _714_ OAI21X1
XNAND2X1_47 vdd _715_ gnd Mem[5][7] _707_ NAND2X1
XOAI21X1_48 gnd vdd _557__bF$buf1 _707_ _127_ _715_ OAI21X1
XNAND3X1_6 _542_ vdd gnd _539__bF$buf3 _621_ _716_ NAND3X1
XNAND2X1_48 vdd _717_ gnd Mem[11][0] _716_ NAND2X1
XOAI21X1_49 gnd vdd _528__bF$buf3 _716_ _128_ _717_ OAI21X1
XNAND2X1_49 vdd _718_ gnd Mem[11][1] _716_ NAND2X1
XOAI21X1_50 gnd vdd _545__bF$buf1 _716_ _129_ _718_ OAI21X1
XNAND2X1_50 vdd _719_ gnd Mem[11][2] _716_ NAND2X1
XOAI21X1_51 gnd vdd _547__bF$buf1 _716_ _130_ _719_ OAI21X1
XNAND2X1_51 vdd _720_ gnd Mem[11][3] _716_ NAND2X1
XOAI21X1_52 gnd vdd _549__bF$buf0 _716_ _131_ _720_ OAI21X1
XNAND2X1_52 vdd _721_ gnd Mem[11][4] _716_ NAND2X1
XOAI21X1_53 gnd vdd _551__bF$buf1 _716_ _132_ _721_ OAI21X1
XNAND2X1_53 vdd _722_ gnd Mem[11][5] _716_ NAND2X1
XOAI21X1_54 gnd vdd _553__bF$buf3 _716_ _133_ _722_ OAI21X1
XNAND2X1_54 vdd _723_ gnd Mem[11][6] _716_ NAND2X1
XOAI21X1_55 gnd vdd _555__bF$buf2 _716_ _134_ _723_ OAI21X1
XNAND2X1_55 vdd _724_ gnd Mem[11][7] _716_ NAND2X1
XOAI21X1_56 gnd vdd _557__bF$buf1 _716_ _135_ _724_ OAI21X1
XNAND3X1_7 _542_ vdd gnd _539__bF$buf2 _610_ _725_ NAND3X1
XNAND2X1_56 vdd _726_ gnd Mem[10][0] _725_ NAND2X1
XOAI21X1_57 gnd vdd _528__bF$buf3 _725_ _136_ _726_ OAI21X1
XNAND2X1_57 vdd _727_ gnd Mem[10][1] _725_ NAND2X1
XOAI21X1_58 gnd vdd _545__bF$buf1 _725_ _137_ _727_ OAI21X1
XNAND2X1_58 vdd _728_ gnd Mem[10][2] _725_ NAND2X1
XOAI21X1_59 gnd vdd _547__bF$buf1 _725_ _138_ _728_ OAI21X1
XNAND2X1_59 vdd _729_ gnd Mem[10][3] _725_ NAND2X1
XOAI21X1_60 gnd vdd _549__bF$buf0 _725_ _139_ _729_ OAI21X1
XNAND2X1_60 vdd _730_ gnd Mem[10][4] _725_ NAND2X1
XOAI21X1_61 gnd vdd _551__bF$buf1 _725_ _140_ _730_ OAI21X1
XNAND2X1_61 vdd _731_ gnd Mem[10][5] _725_ NAND2X1
XOAI21X1_62 gnd vdd _553__bF$buf3 _725_ _141_ _731_ OAI21X1
XNAND2X1_62 vdd _732_ gnd Mem[10][6] _725_ NAND2X1
XOAI21X1_63 gnd vdd _555__bF$buf3 _725_ _142_ _732_ OAI21X1
XNAND2X1_63 vdd _733_ gnd Mem[10][7] _725_ NAND2X1
XOAI21X1_64 gnd vdd _557__bF$buf2 _725_ _143_ _733_ OAI21X1
XNAND3X1_8 _706_ vdd gnd _539__bF$buf0 _574_ _734_ NAND3X1
XNAND2X1_64 vdd _735_ gnd Mem[4][0] _734_ NAND2X1
XOAI21X1_65 gnd vdd _528__bF$buf2 _734_ _144_ _735_ OAI21X1
XNAND2X1_65 vdd _736_ gnd Mem[4][1] _734_ NAND2X1
XOAI21X1_66 gnd vdd _545__bF$buf3 _734_ _145_ _736_ OAI21X1
XNAND2X1_66 vdd _737_ gnd Mem[4][2] _734_ NAND2X1
XOAI21X1_67 gnd vdd _547__bF$buf0 _734_ _146_ _737_ OAI21X1
XNAND2X1_67 vdd _738_ gnd Mem[4][3] _734_ NAND2X1
XOAI21X1_68 gnd vdd _549__bF$buf1 _734_ _147_ _738_ OAI21X1
XNAND2X1_68 vdd _739_ gnd Mem[4][4] _734_ NAND2X1
XOAI21X1_69 gnd vdd _551__bF$buf0 _734_ _148_ _739_ OAI21X1
XNAND2X1_69 vdd _740_ gnd Mem[4][5] _734_ NAND2X1
XOAI21X1_70 gnd vdd _553__bF$buf1 _734_ _149_ _740_ OAI21X1
XNAND2X1_70 vdd _741_ gnd Mem[4][6] _734_ NAND2X1
XOAI21X1_71 gnd vdd _555__bF$buf0 _734_ _150_ _741_ OAI21X1
XNAND2X1_71 vdd _742_ gnd Mem[4][7] _734_ NAND2X1
XOAI21X1_72 gnd vdd _557__bF$buf2 _734_ _151_ _742_ OAI21X1
XNAND3X1_9 _599_ vdd gnd _539__bF$buf0 _574_ _743_ NAND3X1
XNAND2X1_72 vdd _744_ gnd Mem[0][0] _743_ NAND2X1
XOAI21X1_73 gnd vdd _528__bF$buf1 _743_ _152_ _744_ OAI21X1
XNAND2X1_73 vdd _745_ gnd Mem[0][1] _743_ NAND2X1
XOAI21X1_74 gnd vdd _545__bF$buf0 _743_ _153_ _745_ OAI21X1
XNAND2X1_74 vdd _746_ gnd Mem[0][2] _743_ NAND2X1
XOAI21X1_75 gnd vdd _547__bF$buf2 _743_ _154_ _746_ OAI21X1
XNAND2X1_75 vdd _747_ gnd Mem[0][3] _743_ NAND2X1
XOAI21X1_76 gnd vdd _549__bF$buf3 _743_ _155_ _747_ OAI21X1
XNAND2X1_76 vdd _748_ gnd Mem[0][4] _743_ NAND2X1
XOAI21X1_77 gnd vdd _551__bF$buf1 _743_ _156_ _748_ OAI21X1
XNAND2X1_77 vdd _749_ gnd Mem[0][5] _743_ NAND2X1
XOAI21X1_78 gnd vdd _553__bF$buf2 _743_ _157_ _749_ OAI21X1
XNAND2X1_78 vdd _750_ gnd Mem[0][6] _743_ NAND2X1
XOAI21X1_79 gnd vdd _555__bF$buf1 _743_ _158_ _750_ OAI21X1
XNAND2X1_79 vdd _751_ gnd Mem[0][7] _743_ NAND2X1
XOAI21X1_80 gnd vdd _557__bF$buf2 _743_ _159_ _751_ OAI21X1
XNAND2X1_80 vdd _752_ gnd _587_ _610_ NAND2X1
XINVX4_1 vdd gnd _753_ _610_ INVX4
XOAI21X1_81 gnd vdd _753_ _589__bF$buf3 _754_ Mem[26][0] OAI21X1
XOAI21X1_82 gnd vdd _752_ _528__bF$buf0 _165_ _754_ OAI21X1
XOAI21X1_83 gnd vdd _753_ _589__bF$buf4 _755_ Mem[26][1] OAI21X1
XOAI21X1_84 gnd vdd _752_ _545__bF$buf1 _166_ _755_ OAI21X1
XOAI21X1_85 gnd vdd _753_ _589__bF$buf3 _756_ Mem[26][2] OAI21X1
XOAI21X1_86 gnd vdd _752_ _547__bF$buf3 _167_ _756_ OAI21X1
XOAI21X1_87 gnd vdd _753_ _589__bF$buf3 _757_ Mem[26][3] OAI21X1
XOAI21X1_88 gnd vdd _752_ _549__bF$buf2 _168_ _757_ OAI21X1
XOAI21X1_89 gnd vdd _753_ _589__bF$buf4 _758_ Mem[26][4] OAI21X1
XOAI21X1_90 gnd vdd _752_ _551__bF$buf2 _169_ _758_ OAI21X1
XOAI21X1_91 gnd vdd _753_ _589__bF$buf2 _759_ Mem[26][5] OAI21X1
XOAI21X1_92 gnd vdd _752_ _553__bF$buf0 _170_ _759_ OAI21X1
XOAI21X1_93 gnd vdd _753_ _589__bF$buf4 _760_ Mem[26][6] OAI21X1
XOAI21X1_94 gnd vdd _752_ _555__bF$buf2 _171_ _760_ OAI21X1
XOAI21X1_95 gnd vdd _753_ _589__bF$buf3 _761_ Mem[26][7] OAI21X1
XOAI21X1_96 gnd vdd _752_ _557__bF$buf3 _172_ _761_ OAI21X1
XNAND2X1_81 vdd _762_ gnd _587_ _621_ NAND2X1
XINVX4_2 vdd gnd _763_ _621_ INVX4
XOAI21X1_97 gnd vdd _763_ _589__bF$buf3 _764_ Mem[27][0] OAI21X1
XOAI21X1_98 gnd vdd _762_ _528__bF$buf0 _173_ _764_ OAI21X1
XOAI21X1_99 gnd vdd _763_ _589__bF$buf4 _765_ Mem[27][1] OAI21X1
XOAI21X1_100 gnd vdd _762_ _545__bF$buf1 _174_ _765_ OAI21X1
XOAI21X1_101 gnd vdd _763_ _589__bF$buf3 _766_ Mem[27][2] OAI21X1
XOAI21X1_102 gnd vdd _762_ _547__bF$buf3 _175_ _766_ OAI21X1
XOAI21X1_103 gnd vdd _763_ _589__bF$buf2 _767_ Mem[27][3] OAI21X1
XOAI21X1_104 gnd vdd _762_ _549__bF$buf2 _176_ _767_ OAI21X1
XOAI21X1_105 gnd vdd _763_ _589__bF$buf0 _768_ Mem[27][4] OAI21X1
XOAI21X1_106 gnd vdd _762_ _551__bF$buf2 _177_ _768_ OAI21X1
XOAI21X1_107 gnd vdd _763_ _589__bF$buf2 _769_ Mem[27][5] OAI21X1
XOAI21X1_108 gnd vdd _762_ _553__bF$buf0 _178_ _769_ OAI21X1
XOAI21X1_109 gnd vdd _763_ _589__bF$buf4 _770_ Mem[27][6] OAI21X1
XOAI21X1_110 gnd vdd _762_ _555__bF$buf2 _179_ _770_ OAI21X1
XOAI21X1_111 gnd vdd _763_ _589__bF$buf3 _771_ Mem[27][7] OAI21X1
XOAI21X1_112 gnd vdd _762_ _557__bF$buf3 _180_ _771_ OAI21X1
XOR2X2_1 _772_ _573__bF$buf3 vdd gnd _651__bF$buf0 OR2X2
XOAI21X1_113 gnd vdd _651__bF$buf1 _573__bF$buf3 _773_ Mem[28][0] OAI21X1
XOAI21X1_114 gnd vdd _772_ _528__bF$buf2 _181_ _773_ OAI21X1
XOAI21X1_115 gnd vdd _651__bF$buf0 _573__bF$buf1 _774_ Mem[28][1] OAI21X1
XOAI21X1_116 gnd vdd _772_ _545__bF$buf3 _182_ _774_ OAI21X1
XOAI21X1_117 gnd vdd _651__bF$buf1 _573__bF$buf3 _775_ Mem[28][2] OAI21X1
XOAI21X1_118 gnd vdd _772_ _547__bF$buf0 _183_ _775_ OAI21X1
XOAI21X1_119 gnd vdd _651__bF$buf1 _573__bF$buf3 _776_ Mem[28][3] OAI21X1
XOAI21X1_120 gnd vdd _772_ _549__bF$buf1 _184_ _776_ OAI21X1
XOAI21X1_121 gnd vdd _651__bF$buf1 _573__bF$buf3 _777_ Mem[28][4] OAI21X1
XOAI21X1_122 gnd vdd _772_ _551__bF$buf3 _185_ _777_ OAI21X1
XOAI21X1_123 gnd vdd _651__bF$buf0 _573__bF$buf1 _778_ Mem[28][5] OAI21X1
XOAI21X1_124 gnd vdd _772_ _553__bF$buf1 _186_ _778_ OAI21X1
XOAI21X1_125 gnd vdd _651__bF$buf3 _573__bF$buf0 _779_ Mem[28][6] OAI21X1
XOAI21X1_126 gnd vdd _772_ _555__bF$buf0 _187_ _779_ OAI21X1
XOAI21X1_127 gnd vdd _651__bF$buf0 _573__bF$buf1 _780_ Mem[28][7] OAI21X1
XOAI21X1_128 gnd vdd _772_ _557__bF$buf1 _188_ _780_ OAI21X1
XNAND3X1_10 _599_ vdd gnd _539__bF$buf1 _610_ _781_ NAND3X1
XNAND2X1_82 vdd _782_ gnd Mem[2][0] _781_ NAND2X1
XOAI21X1_129 gnd vdd _528__bF$buf1 _781_ _189_ _782_ OAI21X1
XNAND2X1_83 vdd _783_ gnd Mem[2][1] _781_ NAND2X1
XOAI21X1_130 gnd vdd _545__bF$buf2 _781_ _190_ _783_ OAI21X1
XNAND2X1_84 vdd _784_ gnd Mem[2][2] _781_ NAND2X1
XOAI21X1_131 gnd vdd _547__bF$buf0 _781_ _191_ _784_ OAI21X1
XNAND2X1_85 vdd _205_ gnd Mem[2][3] _781_ NAND2X1
XOAI21X1_132 gnd vdd _549__bF$buf2 _781_ _192_ _205_ OAI21X1
XNAND2X1_86 vdd _206_ gnd Mem[2][4] _781_ NAND2X1
XOAI21X1_133 gnd vdd _551__bF$buf3 _781_ _193_ _206_ OAI21X1
XNAND2X1_87 vdd _207_ gnd Mem[2][5] _781_ NAND2X1
XOAI21X1_134 gnd vdd _553__bF$buf2 _781_ _194_ _207_ OAI21X1
XNAND2X1_88 vdd _208_ gnd Mem[2][6] _781_ NAND2X1
XOAI21X1_135 gnd vdd _555__bF$buf3 _781_ _195_ _208_ OAI21X1
XNAND2X1_89 vdd _209_ gnd Mem[2][7] _781_ NAND2X1
XOAI21X1_136 gnd vdd _557__bF$buf3 _781_ _196_ _209_ OAI21X1
XNOR2X1_3 vdd address[0] gnd _210_ cas NOR2X1
XAOI21X1_1 gnd vdd cas _529_ _160_ _210_ AOI21X1
XNOR2X1_4 vdd address[1] gnd _211_ ras NOR2X1
XAOI21X1_2 gnd vdd ras _560_ _161_ _211_ AOI21X1
XNOR2X1_5 vdd address[2] gnd _212_ ras NOR2X1
XAOI21X1_3 gnd vdd ras _540_ _162_ _212_ AOI21X1
XNOR2X1_6 vdd address[3] gnd _213_ vas NOR2X1
XAOI21X1_4 gnd vdd vas _572_ _163_ _213_ AOI21X1
XNOR2X1_7 vdd address[4] gnd _214_ vas NOR2X1
XAOI21X1_5 gnd vdd vas _530_ _164_ _214_ AOI21X1
XNOR2X1_8 vdd _531__bF$buf1 gnd _215_ _532__bF$buf3 NOR2X1
XINVX1_1 Mem[2][0] _216_ vdd gnd INVX1
XNAND2X1_90 vdd _217_ gnd vertical_address[0_bF$buf8] Mem[3][0] NAND2X1
XOAI21X1_137 gnd vdd _216_ vertical_address[0_bF$buf7] _218_ _217_ OAI21X1
XNAND2X1_91 vdd _219_ gnd _218_ _215_ NAND2X1
XINVX1_2 Mem[0][0] _220_ vdd gnd INVX1
XNAND2X1_92 vdd _221_ gnd Mem[1][0] vertical_address[0_bF$buf6] NAND2X1
XOAI21X1_138 gnd vdd _220_ vertical_address[0_bF$buf5] _222_ _221_ OAI21X1
XOAI21X1_139 gnd vdd _531__bF$buf3 _532__bF$buf3 _223_ _222_ OAI21X1
XAOI21X1_6 gnd vdd _223_ _219_ _224_ _598_ AOI21X1
XINVX4_3 vdd gnd _225_ _541_ INVX4
XMUX2X1_1 vertical_address[0_bF$buf4] vdd gnd _226_ Mem[9][0] Mem[8][0] MUX2X1
XMUX2X1_2 vertical_address[0_bF$buf3] vdd gnd _227_ Mem[11][0] Mem[10][0] MUX2X1
XMUX2X1_3 _532__bF$buf1 vdd gnd _228_ _226_ _227_ MUX2X1
XNAND2X1_93 vdd _229_ gnd _225_ _228_ NAND2X1
XINVX4_4 vdd gnd _230_ _561_ INVX4
XMUX2X1_4 vertical_address[0_bF$buf2] vdd gnd _231_ Mem[17][0] Mem[16][0] MUX2X1
XMUX2X1_5 vertical_address[0_bF$buf1] vdd gnd _232_ Mem[19][0] Mem[18][0] MUX2X1
XMUX2X1_6 _532__bF$buf2 vdd gnd _233_ _231_ _232_ MUX2X1
XNAND2X1_94 vdd _234_ gnd _230_ _233_ NAND2X1
XMUX2X1_7 vertical_address[0_bF$buf0] vdd gnd _235_ Mem[25][0] Mem[24][0] MUX2X1
XMUX2X1_8 vertical_address[0_bF$buf8] vdd gnd _236_ Mem[27][0] Mem[26][0] MUX2X1
XMUX2X1_9 _532__bF$buf0 vdd gnd _237_ _235_ _236_ MUX2X1
XNAND2X1_95 vdd _238_ gnd _585_ _237_ NAND2X1
XNAND3X1_11 _234_ vdd gnd _229_ _238_ _239_ NAND3X1
XOAI21X1_140 gnd vdd _239_ _224_ _240_ _559_ OAI21X1
XINVX1_3 Mem[20][0] _241_ vdd gnd INVX1
XNOR2X1_9 vdd row_address[1] gnd _242_ row_address[0] NOR2X1
XNAND2X1_96 vdd _243_ gnd Mem[4][0] _242_ NAND2X1
XOAI21X1_141 gnd vdd _241_ _561_ _244_ _243_ OAI21X1
XINVX1_4 Mem[12][0] _245_ vdd gnd INVX1
XINVX1_5 Mem[28][0] _246_ vdd gnd INVX1
XOAI22X1_1 gnd vdd _245_ _541_ _246_ _584_ _247_ OAI22X1
XOAI21X1_142 gnd vdd _244_ _247_ _248_ _572_ OAI21X1
XINVX1_6 Mem[21][0] _249_ vdd gnd INVX1
XNAND2X1_97 vdd _250_ gnd Mem[5][0] _242_ NAND2X1
XOAI21X1_143 gnd vdd _249_ _561_ _251_ _250_ OAI21X1
XINVX1_7 Mem[13][0] _252_ vdd gnd INVX1
XINVX1_8 Mem[29][0] _253_ vdd gnd INVX1
XOAI22X1_2 gnd vdd _252_ _541_ _253_ _584_ _254_ OAI22X1
XOAI21X1_144 gnd vdd _251_ _254_ _255_ vertical_address[0_bF$buf7] OAI21X1
XNAND2X1_98 vdd _256_ gnd _248_ _255_ NAND2X1
XAOI21X1_7 gnd vdd _531__bF$buf0 _256_ _257_ rw AOI21X1
XINVX8_1 vdd gnd rw _258_ INVX8
XOAI21X1_145 gnd vdd _258_ _785_[0] _259_ _537_ OAI21X1
XAOI21X1_8 gnd vdd _257_ _240_ _197_ _259_ AOI21X1
XINVX1_9 Mem[2][1] _260_ vdd gnd INVX1
XNAND2X1_99 vdd _261_ gnd vertical_address[0_bF$buf6] Mem[3][1] NAND2X1
XOAI21X1_146 gnd vdd _260_ vertical_address[0_bF$buf5] _262_ _261_ OAI21X1
XNAND2X1_100 vdd _263_ gnd _262_ _215_ NAND2X1
XINVX1_10 Mem[0][1] _264_ vdd gnd INVX1
XNAND2X1_101 vdd _265_ gnd vertical_address[0_bF$buf4] Mem[1][1] NAND2X1
XOAI21X1_147 gnd vdd _264_ vertical_address[0_bF$buf3] _266_ _265_ OAI21X1
XOAI21X1_148 gnd vdd _531__bF$buf3 _532__bF$buf2 _267_ _266_ OAI21X1
XAOI21X1_9 gnd vdd _267_ _263_ _268_ _598_ AOI21X1
XMUX2X1_10 vertical_address[0_bF$buf2] vdd gnd _269_ Mem[9][1] Mem[8][1] MUX2X1
XMUX2X1_11 vertical_address[0_bF$buf1] vdd gnd _270_ Mem[11][1] Mem[10][1] MUX2X1
XMUX2X1_12 _532__bF$buf1 vdd gnd _271_ _269_ _270_ MUX2X1
XNAND2X1_102 vdd _272_ gnd _225_ _271_ NAND2X1
XMUX2X1_13 vertical_address[0_bF$buf0] vdd gnd _273_ Mem[17][1] Mem[16][1] MUX2X1
XMUX2X1_14 vertical_address[0_bF$buf8] vdd gnd _274_ Mem[19][1] Mem[18][1] MUX2X1
XMUX2X1_15 _532__bF$buf1 vdd gnd _275_ _273_ _274_ MUX2X1
XNAND2X1_103 vdd _276_ gnd _230_ _275_ NAND2X1
XMUX2X1_16 vertical_address[0_bF$buf7] vdd gnd _277_ Mem[25][1] Mem[24][1] MUX2X1
XMUX2X1_17 vertical_address[0_bF$buf6] vdd gnd _278_ Mem[27][1] Mem[26][1] MUX2X1
XMUX2X1_18 _532__bF$buf3 vdd gnd _279_ _277_ _278_ MUX2X1
XNAND2X1_104 vdd _280_ gnd _585_ _279_ NAND2X1
XNAND3X1_12 _276_ vdd gnd _272_ _280_ _281_ NAND3X1
XOAI21X1_149 gnd vdd _281_ _268_ _282_ _559_ OAI21X1
XINVX1_11 Mem[20][1] _283_ vdd gnd INVX1
XNAND2X1_105 vdd _284_ gnd Mem[4][1] _242_ NAND2X1
XOAI21X1_150 gnd vdd _283_ _561_ _285_ _284_ OAI21X1
XINVX1_12 Mem[12][1] _286_ vdd gnd INVX1
XINVX1_13 Mem[28][1] _287_ vdd gnd INVX1
XOAI22X1_3 gnd vdd _286_ _541_ _287_ _584_ _288_ OAI22X1
XOAI21X1_151 gnd vdd _285_ _288_ _289_ _572_ OAI21X1
XINVX1_14 Mem[21][1] _290_ vdd gnd INVX1
XNAND2X1_106 vdd _291_ gnd Mem[5][1] _242_ NAND2X1
XOAI21X1_152 gnd vdd _290_ _561_ _292_ _291_ OAI21X1
XINVX1_15 Mem[13][1] _293_ vdd gnd INVX1
XINVX1_16 Mem[29][1] _294_ vdd gnd INVX1
XOAI22X1_4 gnd vdd _293_ _541_ _294_ _584_ _295_ OAI22X1
XOAI21X1_153 gnd vdd _292_ _295_ _296_ vertical_address[0_bF$buf5] OAI21X1
XNAND2X1_107 vdd _297_ gnd _289_ _296_ NAND2X1
XAOI21X1_10 gnd vdd _531__bF$buf3 _297_ _298_ rw AOI21X1
XOAI21X1_154 gnd vdd _258_ _785_[1] _299_ _537_ OAI21X1
XAOI21X1_11 gnd vdd _298_ _282_ _198_ _299_ AOI21X1
XINVX1_17 Mem[2][2] _300_ vdd gnd INVX1
XNAND2X1_108 vdd _301_ gnd vertical_address[0_bF$buf4] Mem[3][2] NAND2X1
XOAI21X1_155 gnd vdd _300_ vertical_address[0_bF$buf3] _302_ _301_ OAI21X1
XNAND2X1_109 vdd _303_ gnd _302_ _215_ NAND2X1
XINVX1_18 Mem[0][2] _304_ vdd gnd INVX1
XNAND2X1_110 vdd _305_ gnd vertical_address[0_bF$buf2] Mem[1][2] NAND2X1
XOAI21X1_156 gnd vdd _304_ vertical_address[0_bF$buf1] _306_ _305_ OAI21X1
XOAI21X1_157 gnd vdd _531__bF$buf1 _532__bF$buf5 _307_ _306_ OAI21X1
XAOI21X1_12 gnd vdd _307_ _303_ _308_ _598_ AOI21X1
XMUX2X1_19 vertical_address[0_bF$buf0] vdd gnd _309_ Mem[9][2] Mem[8][2] MUX2X1
XMUX2X1_20 vertical_address[0_bF$buf8] vdd gnd _310_ Mem[11][2] Mem[10][2] MUX2X1
XMUX2X1_21 _532__bF$buf5 vdd gnd _311_ _309_ _310_ MUX2X1
XNAND2X1_111 vdd _312_ gnd _225_ _311_ NAND2X1
XMUX2X1_22 vertical_address[0_bF$buf7] vdd gnd _313_ Mem[17][2] Mem[16][2] MUX2X1
XMUX2X1_23 vertical_address[0_bF$buf6] vdd gnd _314_ Mem[19][2] Mem[18][2] MUX2X1
XMUX2X1_24 _532__bF$buf5 vdd gnd _315_ _313_ _314_ MUX2X1
XNAND2X1_112 vdd _316_ gnd _230_ _315_ NAND2X1
XMUX2X1_25 vertical_address[0_bF$buf5] vdd gnd _317_ Mem[25][2] Mem[24][2] MUX2X1
XMUX2X1_26 vertical_address[0_bF$buf4] vdd gnd _318_ Mem[27][2] Mem[26][2] MUX2X1
XMUX2X1_27 _532__bF$buf0 vdd gnd _319_ _317_ _318_ MUX2X1
XNAND2X1_113 vdd _320_ gnd _585_ _319_ NAND2X1
XNAND3X1_13 _316_ vdd gnd _312_ _320_ _321_ NAND3X1
XOAI21X1_158 gnd vdd _321_ _308_ _322_ _559_ OAI21X1
XINVX1_19 Mem[20][2] _323_ vdd gnd INVX1
XNAND2X1_114 vdd _324_ gnd Mem[4][2] _242_ NAND2X1
XOAI21X1_159 gnd vdd _323_ _561_ _325_ _324_ OAI21X1
XINVX1_20 Mem[12][2] _326_ vdd gnd INVX1
XINVX1_21 Mem[28][2] _327_ vdd gnd INVX1
XOAI22X1_5 gnd vdd _326_ _541_ _327_ _584_ _328_ OAI22X1
XOAI21X1_160 gnd vdd _325_ _328_ _329_ _572_ OAI21X1
XINVX1_22 Mem[21][2] _330_ vdd gnd INVX1
XNAND2X1_115 vdd _331_ gnd Mem[5][2] _242_ NAND2X1
XOAI21X1_161 gnd vdd _330_ _561_ _332_ _331_ OAI21X1
XINVX1_23 Mem[13][2] _333_ vdd gnd INVX1
XINVX1_24 Mem[29][2] _334_ vdd gnd INVX1
XOAI22X1_6 gnd vdd _333_ _541_ _334_ _584_ _335_ OAI22X1
XOAI21X1_162 gnd vdd _332_ _335_ _336_ vertical_address[0_bF$buf3] OAI21X1
XNAND2X1_116 vdd _337_ gnd _329_ _336_ NAND2X1
XAOI21X1_13 gnd vdd _531__bF$buf0 _337_ _338_ rw AOI21X1
XOAI21X1_163 gnd vdd _258_ _785_[2] _339_ _537_ OAI21X1
XAOI21X1_14 gnd vdd _338_ _322_ _199_ _339_ AOI21X1
XINVX1_25 Mem[2][3] _340_ vdd gnd INVX1
XNAND2X1_117 vdd _341_ gnd vertical_address[0_bF$buf2] Mem[3][3] NAND2X1
XOAI21X1_164 gnd vdd _340_ vertical_address[0_bF$buf1] _342_ _341_ OAI21X1
XNAND2X1_118 vdd _343_ gnd _342_ _215_ NAND2X1
XINVX1_26 Mem[0][3] _344_ vdd gnd INVX1
XNAND2X1_119 vdd _345_ gnd vertical_address[0_bF$buf0] Mem[1][3] NAND2X1
XOAI21X1_165 gnd vdd _344_ vertical_address[0_bF$buf8] _346_ _345_ OAI21X1
XOAI21X1_166 gnd vdd _531__bF$buf1 _532__bF$buf4 _347_ _346_ OAI21X1
XAOI21X1_15 gnd vdd _347_ _343_ _348_ _598_ AOI21X1
XMUX2X1_28 vertical_address[0_bF$buf7] vdd gnd _349_ Mem[9][3] Mem[8][3] MUX2X1
XMUX2X1_29 vertical_address[0_bF$buf6] vdd gnd _350_ Mem[11][3] Mem[10][3] MUX2X1
XMUX2X1_30 _532__bF$buf4 vdd gnd _351_ _349_ _350_ MUX2X1
XNAND2X1_120 vdd _352_ gnd _225_ _351_ NAND2X1
XMUX2X1_31 vertical_address[0_bF$buf5] vdd gnd _353_ Mem[17][3] Mem[16][3] MUX2X1
XMUX2X1_32 vertical_address[0_bF$buf4] vdd gnd _354_ Mem[19][3] Mem[18][3] MUX2X1
XMUX2X1_33 _532__bF$buf2 vdd gnd _355_ _353_ _354_ MUX2X1
XNAND2X1_121 vdd _356_ gnd _230_ _355_ NAND2X1
XMUX2X1_34 vertical_address[0_bF$buf3] vdd gnd _357_ Mem[25][3] Mem[24][3] MUX2X1
XMUX2X1_35 vertical_address[0_bF$buf2] vdd gnd _358_ Mem[27][3] Mem[26][3] MUX2X1
XMUX2X1_36 _532__bF$buf0 vdd gnd _359_ _357_ _358_ MUX2X1
XNAND2X1_122 vdd _360_ gnd _585_ _359_ NAND2X1
XNAND3X1_14 _356_ vdd gnd _352_ _360_ _361_ NAND3X1
XOAI21X1_167 gnd vdd _361_ _348_ _362_ _559_ OAI21X1
XINVX1_27 Mem[20][3] _363_ vdd gnd INVX1
XNAND2X1_123 vdd _364_ gnd Mem[4][3] _242_ NAND2X1
XOAI21X1_168 gnd vdd _363_ _561_ _365_ _364_ OAI21X1
XINVX1_28 Mem[12][3] _366_ vdd gnd INVX1
XINVX1_29 Mem[28][3] _367_ vdd gnd INVX1
XOAI22X1_7 gnd vdd _366_ _541_ _367_ _584_ _368_ OAI22X1
XOAI21X1_169 gnd vdd _365_ _368_ _369_ _572_ OAI21X1
XINVX1_30 Mem[21][3] _370_ vdd gnd INVX1
XNAND2X1_124 vdd _371_ gnd Mem[5][3] _242_ NAND2X1
XOAI21X1_170 gnd vdd _370_ _561_ _372_ _371_ OAI21X1
XINVX1_31 Mem[13][3] _373_ vdd gnd INVX1
XINVX1_32 Mem[29][3] _374_ vdd gnd INVX1
XOAI22X1_8 gnd vdd _373_ _541_ _374_ _584_ _375_ OAI22X1
XOAI21X1_171 gnd vdd _372_ _375_ _376_ vertical_address[0_bF$buf1] OAI21X1
XNAND2X1_125 vdd _377_ gnd _369_ _376_ NAND2X1
XAOI21X1_16 gnd vdd _531__bF$buf0 _377_ _378_ rw AOI21X1
XOAI21X1_172 gnd vdd _258_ _785_[3] _379_ _537_ OAI21X1
XAOI21X1_17 gnd vdd _378_ _362_ _200_ _379_ AOI21X1
XINVX1_33 Mem[12][4] _380_ vdd gnd INVX1
XNAND2X1_126 vdd _381_ gnd vertical_address[0_bF$buf0] Mem[13][4] NAND2X1
XOAI21X1_173 gnd vdd _380_ vertical_address[0_bF$buf8] _382_ _381_ OAI21X1
XAOI21X1_18 gnd vdd _225_ _382_ _383_ _559_ AOI21X1
XMUX2X1_37 vertical_address[0_bF$buf7] vdd gnd _384_ Mem[21][4] Mem[20][4] MUX2X1
XOR2X2_2 _385_ _561_ vdd gnd _384_ OR2X2
XINVX1_34 Mem[4][4] _386_ vdd gnd INVX1
XNAND2X1_127 vdd _387_ gnd vertical_address[0_bF$buf6] Mem[5][4] NAND2X1
XOAI21X1_174 gnd vdd _386_ vertical_address[0_bF$buf5] _388_ _387_ OAI21X1
XINVX1_35 Mem[28][4] _389_ vdd gnd INVX1
XNAND2X1_128 vdd _390_ gnd vertical_address[0_bF$buf4] Mem[29][4] NAND2X1
XOAI21X1_175 gnd vdd _389_ vertical_address[0_bF$buf3] _391_ _390_ OAI21X1
XAOI22X1_1 gnd vdd _585_ _391_ _392_ _388_ _242_ AOI22X1
XNAND3X1_15 _392_ vdd gnd _385_ _383_ _393_ NAND3X1
XMUX2X1_38 vertical_address[0_bF$buf2] vdd gnd _394_ Mem[9][4] Mem[8][4] MUX2X1
XMUX2X1_39 vertical_address[0_bF$buf1] vdd gnd _395_ Mem[11][4] Mem[10][4] MUX2X1
XMUX2X1_40 _532__bF$buf5 vdd gnd _396_ _394_ _395_ MUX2X1
XNAND2X1_129 vdd _397_ gnd _225_ _396_ NAND2X1
XOAI21X1_176 gnd vdd _529_ _530_ _398_ _397_ OAI21X1
XMUX2X1_41 vertical_address[0_bF$buf0] vdd gnd _399_ Mem[25][4] Mem[24][4] MUX2X1
XMUX2X1_42 vertical_address[0_bF$buf8] vdd gnd _400_ Mem[27][4] Mem[26][4] MUX2X1
XMUX2X1_43 _532__bF$buf3 vdd gnd _401_ _399_ _400_ MUX2X1
XNAND2X1_130 vdd _402_ gnd _585_ _401_ NAND2X1
XMUX2X1_44 vertical_address[0_bF$buf7] vdd gnd _403_ Mem[1][4] Mem[0][4] MUX2X1
XMUX2X1_45 vertical_address[0_bF$buf6] vdd gnd _404_ Mem[3][4] Mem[2][4] MUX2X1
XMUX2X1_46 _532__bF$buf5 vdd gnd _405_ _403_ _404_ MUX2X1
XNAND2X1_131 vdd _406_ gnd _242_ _405_ NAND2X1
XMUX2X1_47 vertical_address[0_bF$buf5] vdd gnd _407_ Mem[17][4] Mem[16][4] MUX2X1