*SPEF "IEEE 1481.1999"
*DESIGN "ram32_sdram_3split"
*DATE "10:43:18 Saturday November 30, 2024"
*VENDOR "unknown"
*PROGRAM "qrouter"
*VERSION "unknown"
*DESIGN_FLOW "qflow"
*DIVIDER /
*DELIMITER :
*BUS_DELIMITER <>
*T_UNIT 1 PS
*C_UNIT 1 FF
*R_UNIT 1 OHM
*L_UNIT 1 HENRY

*NAME_MAP
*1 _660_
*2 NAND3X1_31
*3 NAND2X1_7
*4 OAI21X1_8
*5 NAND2X1_220
*6 OAI21X1_6
*7 OAI21X1_7
*8 NAND2X1_6
*9 OAI21X1_2
*10 NAND2X1_5
*11 NAND2X1_3
*12 NAND2X1_1
*13 OAI21X1_4
*14 NAND2X1_4
*15 OAI21X1_3
*16 NAND2X1_2
*17 OAI21X1_5
*18 OAI21X1_1
*19 _669_
*20 NAND3X1_1
*21 OAI21X1_12
*22 NAND2X1_11
*23 OAI21X1_11
*24 NAND2X1_10
*25 OAI21X1_13
*26 NAND2X1_12
*27 OAI21X1_14
*28 NAND2X1_13
*29 NAND2X1_15
*30 OAI21X1_16
*31 OAI21X1_15
*32 NAND2X1_14
*33 NAND2X1_8
*34 OAI21X1_9
*35 NAND2X1_9
*36 OAI21X1_10
*37 _678_
*38 NAND3X1_2
*39 NAND2X1_23
*40 OAI21X1_24
*41 NAND2X1_18
*42 OAI21X1_19
*43 OAI21X1_21
*44 NAND2X1_20
*45 OAI21X1_20
*46 NAND2X1_19
*47 NAND2X1_21
*48 OAI21X1_22
*49 NAND2X1_16
*50 OAI21X1_17
*51 NAND2X1_17
*52 OAI21X1_18
*53 OAI21X1_23
*54 NAND2X1_22
*55 _688_
*56 NAND3X1_3
*57 OAI21X1_26
*58 NAND2X1_25
*59 NAND2X1_30
*60 OAI21X1_31
*61 OAI21X1_29
*62 NAND2X1_28
*63 NAND2X1_31
*64 OAI21X1_32
*65 NAND2X1_27
*66 OAI21X1_28
*67 NAND2X1_26
*68 OAI21X1_27
*69 NAND2X1_24
*70 OAI21X1_25
*71 OAI21X1_30
*72 NAND2X1_29
*73 _697_
*74 NAND3X1_4
*75 NAND2X1_33
*76 OAI21X1_34
*77 OAI21X1_37
*78 NAND2X1_36
*79 OAI21X1_35
*80 NAND2X1_34
*81 OAI21X1_40
*82 NAND2X1_39
*83 NAND2X1_32
*84 OAI21X1_33
*85 OAI21X1_36
*86 NAND2X1_35
*87 NAND2X1_37
*88 OAI21X1_38
*89 NAND2X1_38
*90 OAI21X1_39
*91 _707_
*92 NAND3X1_5
*93 NAND2X1_44
*94 OAI21X1_45
*95 OAI21X1_46
*96 NAND2X1_45
*97 OAI21X1_48
*98 NAND2X1_47
*99 NAND2X1_41
*100 NAND2X1_40
*101 OAI21X1_41
*102 NAND2X1_43
*103 OAI21X1_44
*104 NAND2X1_42
*105 OAI21X1_43
*106 OAI21X1_42
*107 OAI21X1_47
*108 NAND2X1_46
*109 _716_
*110 NAND3X1_6
*111 NAND2X1_55
*112 OAI21X1_56
*113 NAND2X1_51
*114 OAI21X1_52
*115 OAI21X1_51
*116 NAND2X1_50
*117 NAND2X1_52
*118 OAI21X1_53
*119 NAND2X1_53
*120 OAI21X1_54
*121 OAI21X1_50
*122 NAND2X1_49
*123 NAND2X1_54
*124 OAI21X1_55
*125 OAI21X1_49
*126 NAND2X1_48
*127 _725_
*128 NAND3X1_7
*129 OAI21X1_58
*130 NAND2X1_57
*131 OAI21X1_57
*132 NAND2X1_56
*133 OAI21X1_63
*134 NAND2X1_62
*135 NAND2X1_63
*136 OAI21X1_64
*137 OAI21X1_60
*138 NAND2X1_59
*139 OAI21X1_61
*140 NAND2X1_60
*141 NAND2X1_58
*142 OAI21X1_59
*143 NAND2X1_61
*144 OAI21X1_62
*145 _734_
*146 NAND3X1_8
*147 OAI21X1_66
*148 OAI21X1_70
*149 NAND2X1_69
*150 NAND2X1_68
*151 OAI21X1_69
*152 NAND2X1_65
*153 NAND2X1_70
*154 OAI21X1_71
*155 OAI21X1_68
*156 NAND2X1_67
*157 NAND2X1_64
*158 OAI21X1_65
*159 NAND2X1_66
*160 OAI21X1_67
*161 OAI21X1_72
*162 NAND2X1_71
*163 _743_
*164 NAND3X1_9
*165 NAND2X1_72
*166 OAI21X1_73
*167 NAND2X1_78
*168 OAI21X1_79
*169 NAND2X1_73
*170 OAI21X1_74
*171 OAI21X1_78
*172 NAND2X1_77
*173 NAND2X1_76
*174 OAI21X1_77
*175 NAND2X1_74
*176 OAI21X1_75
*177 NAND2X1_79
*178 OAI21X1_80
*179 NAND2X1_75
*180 OAI21X1_76
*181 _781_
*182 NAND3X1_10
*183 NAND2X1_88
*184 OAI21X1_135
*185 NAND2X1_82
*186 OAI21X1_129
*187 NAND2X1_87
*188 OAI21X1_134
*189 OAI21X1_130
*190 NAND2X1_83
*191 NAND2X1_89
*192 OAI21X1_131
*193 NAND2X1_84
*194 OAI21X1_133
*195 NAND2X1_86
*196 OAI21X1_136
*197 OAI21X1_132
*198 NAND2X1_85
*199 _561_
*200 NAND2X1_166
*201 OAI22X1_11
*202 OR2X2_2
*203 OAI22X1_9
*204 OAI21X1_150
*205 OAI21X1_152
*206 NOR2X1_14
*207 NOR2X1_18
*208 INVX4_4
*209 OAI22X1_14
*210 OAI21X1_161
*211 OAI21X1_170
*212 OAI21X1_141
*213 OAI21X1_159
*214 OAI21X1_168
*215 OAI21X1_143
*216 OAI22X1_12
*217 _543_
*218 NAND3X1_23
*219 NAND2X1_161
*220 OAI21X1_205
*221 OAI21X1_209
*222 NAND2X1_165
*223 NAND2X1_160
*224 OAI21X1_204
*225 NAND2X1_162
*226 OAI21X1_206
*227 NAND2X1_163
*228 OAI21X1_207
*229 NAND2X1_164
*230 OAI21X1_203
*231 NAND2X1_159
*232 OAI21X1_208
*233 NAND2X1_158
*234 OAI21X1_202
*235 _563_
*236 NAND3X1_24
*237 NAND2X1_168
*238 OAI21X1_211
*239 NAND2X1_173
*240 OAI21X1_216
*241 NAND2X1_171
*242 OAI21X1_214
*243 NAND2X1_172
*244 OAI21X1_215
*245 OAI21X1_213
*246 NAND2X1_170
*247 OAI21X1_212
*248 NAND2X1_169
*249 NAND2X1_174
*250 OAI21X1_217
*251 NAND2X1_167
*252 OAI21X1_210
*253 _575_
*254 NAND3X1_25
*255 OAI21X1_220
*256 OAI21X1_224
*257 NAND2X1_180
*258 NAND2X1_181
*259 OAI21X1_225
*260 NAND2X1_176
*261 NAND2X1_179
*262 OAI21X1_223
*263 OAI21X1_222
*264 OAI21X1_219
*265 OAI21X1_221
*266 NAND2X1_177
*267 NAND2X1_182
*268 OAI21X1_226
*269 NAND2X1_175
*270 NAND2X1_178
*271 _600_
*272 NAND3X1_26
*273 NAND2X1_186
*274 OAI21X1_244
*275 OAI21X1_250
*276 NAND2X1_192
*277 OAI21X1_245
*278 NAND2X1_187
*279 OAI21X1_249
*280 NAND2X1_191
*281 OAI21X1_247
*282 NAND2X1_189
*283 OAI21X1_251
*284 NAND2X1_193
*285 NAND2X1_190
*286 OAI21X1_248
*287 OAI21X1_246
*288 NAND2X1_188
*289 _612_
*290 NAND3X1_27
*291 OAI21X1_256
*292 NAND2X1_198
*293 NAND2X1_194
*294 OAI21X1_252
*295 NAND2X1_197
*296 OAI21X1_255
*297 NAND2X1_199
*298 OAI21X1_258
*299 NAND2X1_200
*300 NAND2X1_195
*301 OAI21X1_253
*302 OAI21X1_257
*303 NAND2X1_196
*304 OAI21X1_254
*305 NAND2X1_201
*306 OAI21X1_259
*307 _622_
*308 NAND3X1_28
*309 OAI21X1_264
*310 NAND2X1_206
*311 OAI21X1_260
*312 NAND2X1_202
*313 OAI21X1_263
*314 NAND2X1_205
*315 NAND2X1_207
*316 OAI21X1_265
*317 OAI21X1_261
*318 NAND2X1_203
*319 OAI21X1_266
*320 NAND2X1_208
*321 NAND2X1_204
*322 OAI21X1_262
*323 OAI21X1_267
*324 NAND2X1_209
*325 _631_
*326 NAND3X1_29
*327 OAI21X1_268
*328 NAND2X1_210
*329 OAI21X1_275
*330 NAND2X1_217
*331 NAND2X1_214
*332 OAI21X1_272
*333 NAND2X1_213
*334 OAI21X1_271
*335 NAND2X1_212
*336 OAI21X1_270
*337 OAI21X1_274
*338 NAND2X1_216
*339 NAND2X1_211
*340 OAI21X1_269
*341 OAI21X1_273
*342 NAND2X1_215
*343 clk_bF_buf13
*344 CLKBUF1_1
*345 DFFPOSX1_59
*346 DFFPOSX1_184
*347 DFFPOSX1_17
*348 DFFPOSX1_182
*349 DFFPOSX1_192
*350 DFFPOSX1_64
*351 DFFPOSX1_77
*352 DFFPOSX1_145
*353 DFFPOSX1_20
*354 DFFPOSX1_186
*355 DFFPOSX1_108
*356 DFFPOSX1_19
*357 DFFPOSX1_124
*358 DFFPOSX1_113
*359 DFFPOSX1_185
*360 clk_bF_buf12
*361 CLKBUF1_2
*362 DFFPOSX1_94
*363 DFFPOSX1_6
*364 DFFPOSX1_110
*365 DFFPOSX1_84
*366 DFFPOSX1_100
*367 DFFPOSX1_52
*368 DFFPOSX1_158
*369 DFFPOSX1_102
*370 DFFPOSX1_86
*371 DFFPOSX1_49
*372 DFFPOSX1_44
*373 DFFPOSX1_164
*374 DFFPOSX1_165
*375 DFFPOSX1_134
*376 DFFPOSX1_41
*377 clk_bF_buf11
*378 CLKBUF1_3
*379 DFFPOSX1_176
*380 DFFPOSX1_105
*381 DFFPOSX1_9
*382 DFFPOSX1_168
*383 DFFPOSX1_193
*384 DFFPOSX1_107
*385 DFFPOSX1_73
*386 DFFPOSX1_75
*387 DFFPOSX1_148
*388 DFFPOSX1_116
*389 DFFPOSX1_121
*390 DFFPOSX1_76
*391 DFFPOSX1_122
*392 DFFPOSX1_74
*393 DFFPOSX1_166
*394 clk_bF_buf10
*395 CLKBUF1_4
*396 DFFPOSX1_173
*397 DFFPOSX1_174
*398 DFFPOSX1_169
*399 DFFPOSX1_177
*400 DFFPOSX1_67
*401 DFFPOSX1_28
*402 DFFPOSX1_27
*403 DFFPOSX1_188
*404 DFFPOSX1_151
*405 DFFPOSX1_79
*406 DFFPOSX1_197
*407 DFFPOSX1_78
*408 DFFPOSX1_32
*409 DFFPOSX1_66
*410 DFFPOSX1_72
*411 clk_bF_buf9
*412 CLKBUF1_5
*413 DFFPOSX1_128
*414 DFFPOSX1_61
*415 DFFPOSX1_136
*416 DFFPOSX1_189
*417 DFFPOSX1_88
*418 DFFPOSX1_114
*419 DFFPOSX1_150
*420 DFFPOSX1_146
*421 DFFPOSX1_126
*422 DFFPOSX1_57
*423 DFFPOSX1_33
*424 DFFPOSX1_92
*425 DFFPOSX1_187
*426 DFFPOSX1_80
*427 DFFPOSX1_183
*428 clk_bF_buf8
*429 CLKBUF1_6
*430 DFFPOSX1_8
*431 DFFPOSX1_160
*432 DFFPOSX1_162
*433 DFFPOSX1_163
*434 DFFPOSX1_51
*435 DFFPOSX1_140
*436 DFFPOSX1_43
*437 DFFPOSX1_155
*438 DFFPOSX1_40
*439 DFFPOSX1_109
*440 DFFPOSX1_156
*441 DFFPOSX1_144
*442 DFFPOSX1_60
*443 DFFPOSX1_194
*444 DFFPOSX1_4
*445 clk_bF_buf7
*446 CLKBUF1_7
*447 DFFPOSX1_37
*448 DFFPOSX1_36
*449 DFFPOSX1_45
*450 DFFPOSX1_125
*451 DFFPOSX1_153
*452 DFFPOSX1_104
*453 DFFPOSX1_83
*454 DFFPOSX1_101
*455 DFFPOSX1_205
*456 DFFPOSX1_149
*457 DFFPOSX1_85
*458 DFFPOSX1_200
*459 DFFPOSX1_198
*460 DFFPOSX1_157
*461 DFFPOSX1_117
*462 clk_bF_buf6
*463 CLKBUF1_8
*464 DFFPOSX1_26
*465 DFFPOSX1_69
*466 DFFPOSX1_127
*467 DFFPOSX1_31
*468 DFFPOSX1_119
*469 DFFPOSX1_178
*470 DFFPOSX1_170
*471 DFFPOSX1_39
*472 DFFPOSX1_138
*473 DFFPOSX1_167
*474 DFFPOSX1_196
*475 DFFPOSX1_130
*476 DFFPOSX1_15
*477 DFFPOSX1_23
*478 DFFPOSX1_10
*479 clk_bF_buf5
*480 CLKBUF1_9
*481 DFFPOSX1_139
*482 DFFPOSX1_131
*483 DFFPOSX1_99
*484 DFFPOSX1_3
*485 DFFPOSX1_141
*486 DFFPOSX1_91
*487 DFFPOSX1_13
*488 DFFPOSX1_5
*489 DFFPOSX1_133
*490 DFFPOSX1_142
*491 DFFPOSX1_21
*492 DFFPOSX1_93
*493 DFFPOSX1_161
*494 DFFPOSX1_14
*495 DFFPOSX1_35
*496 _541_
*497 NAND2X1_157
*498 OAI22X1_11
*499 OAI22X1_9
*500 OAI22X1_4
*501 OAI22X1_3
*502 NOR2X1_13
*503 INVX4_3
*504 OAI22X1_2
*505 OAI22X1_6
*506 OAI22X1_7
*507 OAI22X1_5
*508 OAI22X1_8
*509 OAI22X1_14
*510 OAI22X1_12
*511 OAI22X1_1
*512 NOR2X1_1
*513 clk
*514 CLKBUF1_3
*515 CLKBUF1_8
*516 CLKBUF1_5
*517 CLKBUF1_7
*518 CLKBUF1_9
*519 CLKBUF1_2
*520 CLKBUF1_11
*521 CLKBUF1_10
*522 CLKBUF1_13
*523 CLKBUF1_14
*524 CLKBUF1_6
*525 CLKBUF1_1
*526 CLKBUF1_12
*527 CLKBUF1_4
*528 clk_bF_buf4
*529 CLKBUF1_10
*530 DFFPOSX1_191
*531 DFFPOSX1_82
*532 DFFPOSX1_204
*533 DFFPOSX1_87
*534 DFFPOSX1_55
*535 DFFPOSX1_47
*536 DFFPOSX1_103
*537 DFFPOSX1_154
*538 DFFPOSX1_42
*539 DFFPOSX1_98
*540 DFFPOSX1_63
*541 DFFPOSX1_34
*542 DFFPOSX1_199
*543 DFFPOSX1_18
*544 clk_bF_buf3
*545 CLKBUF1_11
*546 DFFPOSX1_54
*547 DFFPOSX1_202
*548 DFFPOSX1_46
*549 DFFPOSX1_203
*550 DFFPOSX1_97
*551 DFFPOSX1_62
*552 DFFPOSX1_81
*553 DFFPOSX1_190
*554 DFFPOSX1_201
*555 DFFPOSX1_38
*556 DFFPOSX1_118
*557 DFFPOSX1_106
*558 DFFPOSX1_53
*559 DFFPOSX1_195
*560 clk_bF_buf2
*561 CLKBUF1_12
*562 DFFPOSX1_181
*563 DFFPOSX1_68
*564 DFFPOSX1_171
*565 DFFPOSX1_25
*566 DFFPOSX1_179
*567 DFFPOSX1_30
*568 DFFPOSX1_180
*569 DFFPOSX1_29
*570 DFFPOSX1_175
*571 DFFPOSX1_135
*572 DFFPOSX1_172
*573 DFFPOSX1_71
*574 DFFPOSX1_70
*575 DFFPOSX1_65
*576 clk_bF_buf1
*577 CLKBUF1_13
*578 DFFPOSX1_129
*579 DFFPOSX1_137
*580 DFFPOSX1_143
*581 DFFPOSX1_89
*582 DFFPOSX1_50
*583 DFFPOSX1_58
*584 DFFPOSX1_95
*585 DFFPOSX1_159
*586 DFFPOSX1_22
*587 DFFPOSX1_111
*588 DFFPOSX1_7
*589 DFFPOSX1_90
*590 DFFPOSX1_1
*591 DFFPOSX1_2
*592 clk_bF_buf0
*593 CLKBUF1_14
*594 DFFPOSX1_96
*595 DFFPOSX1_12
*596 DFFPOSX1_152
*597 DFFPOSX1_48
*598 DFFPOSX1_112
*599 DFFPOSX1_56
*600 DFFPOSX1_132
*601 DFFPOSX1_24
*602 DFFPOSX1_11
*603 DFFPOSX1_115
*604 DFFPOSX1_123
*605 DFFPOSX1_147
*606 DFFPOSX1_120
*607 DFFPOSX1_16
*608 _584_
*609 NAND2X1_183
*610 OAI22X1_10
*611 OAI22X1_13
*612 OAI22X1_1
*613 OAI22X1_6
*614 OAI22X1_7
*615 OAI22X1_2
*616 OAI22X1_8
*617 OAI22X1_5
*618 INVX4_10
*619 OAI22X1_3
*620 NOR2X1_20
*621 OR2X2_3
*622 OAI22X1_4
*623 _559_
*624 INVX8_11
*625 AOI21X1_18
*626 OAI21X1_158
*627 OAI21X1_196
*628 OAI21X1_167
*629 NOR2X1_2
*630 NOR2X1_1
*631 NOR2X1_20
*632 NOR2X1_14
*633 AOI21X1_23
*634 OAI21X1_140
*635 OAI21X1_149
*636 OAI21X1_182
*637 _598_
*638 NAND2X1_185
*639 AOI21X1_25
*640 AOI21X1_12
*641 AOI21X1_15
*642 NOR2X1_16
*643 NOR2X1_2
*644 OAI21X1_183
*645 AOI21X1_6
*646 AOI21X1_9
*647 AOI21X1_20
*648 OAI22X1_10
*649 OAI22X1_13
*650 OAI21X1_197
*651 _242_
*652 NOR2X1_9
*653 NAND2X1_96
*654 NAND2X1_123
*655 NAND2X1_97
*656 NAND2X1_124
*657 NAND2X1_115
*658 NAND2X1_114
*659 NAND2X1_106
*660 AOI22X1_1
*661 NAND2X1_105
*662 AOI22X1_2
*663 NAND2X1_145
*664 NAND2X1_131
*665 vertical_address[0_bF_buf8]
*666 BUFX4_15
*667 MUX2X1_50
*668 MUX2X1_20
*669 OAI21X1_173
*670 OAI21X1_165
*671 NAND2X1_90
*672 MUX2X1_59
*673 MUX2X1_8
*674 MUX2X1_42
*675 MUX2X1_66
*676 MUX2X1_14
*677 MUX2X1_73
*678 vertical_address[0_bF_buf7]
*679 BUFX4_16
*680 MUX2X1_51
*681 MUX2X1_37
*682 MUX2X1_44
*683 MUX2X1_22
*684 MUX2X1_28
*685 MUX2X1_75
*686 OAI21X1_137
*687 MUX2X1_67
*688 NAND2X1_141
*689 MUX2X1_16
*690 OAI21X1_144
*691 vertical_address[0_bF_buf6]
*692 BUFX4_17
*693 MUX2X1_53
*694 MUX2X1_69
*695 NAND2X1_99
*696 NAND2X1_127
*697 OAI21X1_188
*698 MUX2X1_17
*699 NAND2X1_92
*700 MUX2X1_45
*701 MUX2X1_23
*702 MUX2X1_29
*703 MUX2X1_76
*704 vertical_address[0_bF_buf5]
*705 BUFX4_18
*706 MUX2X1_47
*707 MUX2X1_31
*708 MUX2X1_54
*709 MUX2X1_70
*710 OAI21X1_146
*711 OAI21X1_153
*712 OAI21X1_174
*713 OAI21X1_138
*714 NAND2X1_142
*715 MUX2X1_78
*716 MUX2X1_25
*717 vertical_address[0_bF_buf4]
*718 BUFX4_19
*719 MUX2X1_32
*720 MUX2X1_48
*721 NAND2X1_101
*722 OAI21X1_189
*723 MUX2X1_56
*724 MUX2X1_79
*725 MUX2X1_26
*726 NAND2X1_147
*727 NAND2X1_128
*728 NAND2X1_108
*729 MUX2X1_1
*730 vertical_address[0_bF_buf3]
*731 BUFX4_20
*732 NAND2X1_133
*733 OAI21X1_147
*734 MUX2X1_60
*735 MUX2X1_2
*736 MUX2X1_57
*737 MUX2X1_34
*738 OAI21X1_193
*739 OAI21X1_175
*740 OAI21X1_155
*741 OAI21X1_199
*742 OAI21X1_162
*743 vertical_address[0_bF_buf2]
*744 BUFX4_21
*745 OAI21X1_179
*746 MUX2X1_4
*747 OAI21X1_185
*748 MUX2X1_61
*749 MUX2X1_10
*750 MUX2X1_38
*751 NAND2X1_110
*752 NAND2X1_149
*753 NAND2X1_117
*754 OAI21X1_201
*755 MUX2X1_35
*756 vertical_address[0_bF_buf1]
*757 BUFX4_22
*758 MUX2X1_5
*759 NAND2X1_135
*760 NAND2X1_140
*761 MUX2X1_11
*762 MUX2X1_63
*763 MUX2X1_39
*764 OAI21X1_156
*765 OAI21X1_194
*766 OAI21X1_164
*767 OAI21X1_171
*768 INVX4_8
*769 vertical_address[0_bF_buf0]
*770 BUFX4_23
*771 OAI21X1_180
*772 MUX2X1_13
*773 OAI21X1_187
*774 MUX2X1_64
*775 NOR2X1_17
*776 MUX2X1_41
*777 MUX2X1_7
*778 NAND2X1_119
*779 NAND2X1_126
*780 MUX2X1_19
*781 MUX2X1_72
*782 _225_
*783 INVX4_3
*784 AOI21X1_23
*785 NAND2X1_143
*786 NAND2X1_102
*787 NAND2X1_93
*788 NAND2X1_150
*789 NAND2X1_120
*790 NAND2X1_111
*791 NAND2X1_129
*792 AOI21X1_18
*793 NAND2X1_136
*794 _585_
*795 INVX4_10
*796 NAND2X1_113
*797 NAND2X1_130
*798 NAND2X1_138
*799 OAI21X1_227
*800 NAND2X1_144
*801 NAND2X1_104
*802 NAND2X1_95
*803 NAND2X1_122
*804 AOI22X1_1
*805 NAND2X1_152
*806 _258_
*807 INVX8_1
*808 OAI21X1_178
*809 AOI21X1_19
*810 OAI21X1_186
*811 OAI21X1_145
*812 OAI21X1_172
*813 OAI21X1_163
*814 OAI21X1_200
*815 AOI21X1_24
*816 OAI21X1_192
*817 OAI21X1_154
*818 vertical_address[0]
*819 DFFPOSX1_164
*820 BUFX4_21
*821 BUFX4_17
*822 BUFX4_23
*823 BUFX4_15
*824 BUFX4_18
*825 BUFX4_16
*826 BUFX4_22
*827 BUFX4_19
*828 BUFX4_20
*829 _572_
*830 INVX4_8
*831 OAI21X1_142
*832 OAI21X1_218
*833 NOR2X1_19
*834 OAI21X1_151
*835 OAI21X1_184
*836 AOI21X1_4
*837 OAI21X1_198
*838 OAI21X1_160
*839 OAI21X1_169
*840 _230_
*841 INVX4_4
*842 NAND2X1_132
*843 NAND2X1_112
*844 NAND2X1_151
*845 NAND2X1_121
*846 NAND2X1_137
*847 NAND2X1_94
*848 NAND2X1_146
*849 NAND2X1_103
*850 AOI22X1_2
*851 _537_
*852 NOR2X1_12
*853 OAI21X1_200
*854 OAI21X1_163
*855 OAI21X1_172
*856 NAND2X1_156
*857 OAI21X1_154
*858 OAI21X1_192
*859 OAI21X1_178
*860 OAI21X1_186
*861 OAI21X1_145
*862 _534_
*863 INVX4_7
*864 NAND3X1_30
*865 NAND3X1_23
*866 NAND2X1_184
*867 NAND3X1_31
*868 NAND3X1_26
*869 NAND3X1_24
*870 NAND3X1_5
*871 NAND3X1_3
*872 _752_
*873 NAND2X1_80
*874 OAI21X1_84
*875 OAI21X1_94
*876 OAI21X1_90
*877 OAI21X1_92
*878 OAI21X1_88
*879 OAI21X1_82
*880 OAI21X1_96
*881 OAI21X1_86
*882 _753_
*883 INVX4_1
*884 OAI21X1_89
*885 OAI21X1_93
*886 OAI21X1_83
*887 OAI21X1_91
*888 OAI21X1_85
*889 OAI21X1_81
*890 OAI21X1_87
*891 OAI21X1_95
*892 _762_
*893 NAND2X1_81
*894 OAI21X1_106
*895 OAI21X1_110
*896 OAI21X1_100
*897 OAI21X1_108
*898 OAI21X1_104
*899 OAI21X1_98
*900 OAI21X1_112
*901 OAI21X1_102
*902 _763_
*903 INVX4_2
*904 OAI21X1_105
*905 OAI21X1_109
*906 OAI21X1_99
*907 OAI21X1_107
*908 OAI21X1_103
*909 OAI21X1_97
*910 OAI21X1_111
*911 OAI21X1_101
*912 _772_
*913 OR2X2_1
*914 OAI21X1_116
*915 OAI21X1_128
*916 OAI21X1_124
*917 OAI21X1_120
*918 OAI21X1_122
*919 OAI21X1_118
*920 OAI21X1_114
*921 OAI21X1_126
*922 rw
*923 INVX8_1
*924 AOI21X1_21
*925 AOI21X1_10
*926 NAND2X1_156
*927 AOI21X1_16
*928 AOI21X1_7
*929 AOI21X1_26
*930 AOI21X1_13
*931 _588_
*932 NAND2X1_184
*933 OAI21X1_231
*934 OAI21X1_243
*935 OAI21X1_229
*936 OAI21X1_239
*937 OAI21X1_235
*938 OAI21X1_233
*939 OAI21X1_241
*940 OAI21X1_237
*941 _640_
*942 NAND2X1_218
*943 OAI21X1_287
*944 OAI21X1_289
*945 OAI21X1_285
*946 OAI21X1_279
*947 OAI21X1_281
*948 OAI21X1_283
*949 OAI21X1_291
*950 OAI21X1_277
*951 _650_
*952 NAND3X1_30
*953 OAI21X1_303
*954 OAI21X1_305
*955 OAI21X1_295
*956 OAI21X1_299
*957 OAI21X1_293
*958 OAI21X1_297
*959 OAI21X1_301
*960 OAI21X1_307
*961 _589__bF_buf4
*962 BUFX4_48
*963 OAI21X1_109
*964 OAI21X1_99
*965 OAI21X1_236
*966 OAI21X1_89
*967 OAI21X1_93
*968 OAI21X1_83
*969 OAI21X1_288
*970 _589__bF_buf3
*971 BUFX4_49
*972 OAI21X1_97
*973 OAI21X1_87
*974 OAI21X1_95
*975 OAI21X1_111
*976 OAI21X1_101
*977 OAI21X1_85
*978 OAI21X1_81
*979 _574_
*980 INVX4_9
*981 NAND3X1_2
*982 NAND3X1_9
*983 NAND3X1_4
*984 NAND3X1_8
*985 NAND3X1_25
*986 NAND2X1_218
*987 NAND3X1_1
*988 _547__bF_buf3
*989 BUFX4_1
*990 OAI21X1_297
*991 OAI21X1_27
*992 OAI21X1_102
*993 OAI21X1_86
*994 OAI21X1_281
*995 OAI21X1_233
*996 _547__bF_buf2
*997 BUFX4_2
*998 OAI21X1_212
*999 OAI21X1_35
*1000 OAI21X1_262
*1001 OAI21X1_75
*1002 OAI21X1_11
*1003 OAI21X1_254
*1004 _547__bF_buf1
*1005 BUFX4_3
*1006 OAI21X1_19
*1007 OAI21X1_51
*1008 OAI21X1_204
*1009 OAI21X1_59
*1010 OAI21X1_3
*1011 OAI21X1_246
*1012 _547__bF_buf0
*1013 BUFX4_4
*1014 OAI21X1_131
*1015 OAI21X1_270
*1016 OAI21X1_43
*1017 OAI21X1_67
*1018 OAI21X1_221
*1019 OAI21X1_118
*1020 _532_
*1021 NOR2X1_11
*1022 BUFX4_12
*1023 BUFX4_13
*1024 BUFX4_11
*1025 BUFX4_10
*1026 BUFX4_9
*1027 BUFX4_14
*1028 _532__bF_buf5
*1029 BUFX4_9
*1030 MUX2X1_46
*1031 MUX2X1_24
*1032 OAI21X1_157
*1033 MUX2X1_49
*1034 MUX2X1_21
*1035 MUX2X1_40
*1036 _532__bF_buf4
*1037 BUFX4_10
*1038 OAI21X1_166
*1039 MUX2X1_77
*1040 OAI21X1_195
*1041 MUX2X1_30
*1042 MUX2X1_74
*1043 OAI21X1_218
*1044 _532__bF_buf3
*1045 BUFX4_11
*1046 NOR2X1_8
*1047 OR2X2_4
*1048 MUX2X1_43
*1049 MUX2X1_18
*1050 MUX2X1_65
*1051 OAI21X1_139
*1052 _532__bF_buf2
*1053 BUFX4_12
*1054 MUX2X1_6
*1055 MUX2X1_55
*1056 MUX2X1_33
*1057 MUX2X1_52
*1058 OAI21X1_181
*1059 OAI21X1_148
*1060 _532__bF_buf1
*1061 BUFX4_13
*1062 MUX2X1_71
*1063 MUX2X1_15
*1064 MUX2X1_3
*1065 MUX2X1_12
*1066 MUX2X1_62
*1067 MUX2X1_68
*1068 _532__bF_buf0
*1069 BUFX4_14
*1070 MUX2X1_58
*1071 MUX2X1_9
*1072 MUX2X1_36
*1073 MUX2X1_80
*1074 MUX2X1_27
*1075 OAI21X1_201
*1076 _555__bF_buf3
*1077 BUFX4_24
*1078 OAI21X1_15
*1079 OAI21X1_216
*1080 OAI21X1_63
*1081 OAI21X1_135
*1082 OAI21X1_31
*1083 OAI21X1_274
*1084 _555__bF_buf2
*1085 BUFX4_25
*1086 OAI21X1_94
*1087 OAI21X1_289
*1088 OAI21X1_55
*1089 OAI21X1_225
*1090 OAI21X1_110
*1091 OAI21X1_241
*1092 _555__bF_buf1
*1093 BUFX4_26
*1094 OAI21X1_79
*1095 OAI21X1_7
*1096 OAI21X1_23
*1097 OAI21X1_208
*1098 OAI21X1_266
*1099 OAI21X1_258
*1100 _555__bF_buf0
*1101 BUFX4_27
*1102 OAI21X1_47
*1103 OAI21X1_305
*1104 OAI21X1_71
*1105 OAI21X1_126
*1106 OAI21X1_39
*1107 OAI21X1_250
*1108 _549__bF_buf3
*1109 BUFX4_28
*1110 OAI21X1_76
*1111 OAI21X1_247
*1112 OAI21X1_4
*1113 OAI21X1_20
*1114 OAI21X1_263
*1115 OAI21X1_255
*1116 _549__bF_buf2
*1117 BUFX4_29
*1118 OAI21X1_299
*1119 OAI21X1_132
*1120 OAI21X1_235
*1121 OAI21X1_283
*1122 OAI21X1_88
*1123 OAI21X1_104
*1124 _549__bF_buf1
*1125 BUFX4_30
*1126 OAI21X1_44
*1127 OAI21X1_28
*1128 OAI21X1_222
*1129 OAI21X1_120
*1130 OAI21X1_36
*1131 OAI21X1_68
*1132 _549__bF_buf0
*1133 BUFX4_31
*1134 OAI21X1_271
*1135 OAI21X1_205
*1136 OAI21X1_12
*1137 OAI21X1_52
*1138 OAI21X1_213
*1139 OAI21X1_60
*1140 _528__bF_buf3
*1141 BUFX4_36
*1142 OAI21X1_229
*1143 OAI21X1_49
*1144 OAI21X1_57
*1145 OAI21X1_9
*1146 OAI21X1_202
*1147 OAI21X1_277
*1148 _528__bF_buf2
*1149 BUFX4_37
*1150 OAI21X1_25
*1151 OAI21X1_41
*1152 OAI21X1_33
*1153 OAI21X1_65
*1154 OAI21X1_219
*1155 OAI21X1_114
*1156 _528__bF_buf1
*1157 BUFX4_38
*1158 OAI21X1_73
*1159 OAI21X1_1
*1160 OAI21X1_17
*1161 OAI21X1_260
*1162 OAI21X1_252
*1163 OAI21X1_129
*1164 _528__bF_buf0
*1165 BUFX4_39
*1166 OAI21X1_210
*1167 OAI21X1_82
*1168 OAI21X1_98
*1169 OAI21X1_293
*1170 OAI21X1_244
*1171 OAI21X1_268
*1172 _557__bF_buf3
*1173 BUFX4_40
*1174 OAI21X1_307
*1175 OAI21X1_136
*1176 OAI21X1_243
*1177 OAI21X1_291
*1178 OAI21X1_96
*1179 OAI21X1_112
*1180 _557__bF_buf2
*1181 BUFX4_41
*1182 OAI21X1_80
*1183 OAI21X1_267
*1184 OAI21X1_259
*1185 OAI21X1_64
*1186 OAI21X1_251
*1187 OAI21X1_72
*1188 _557__bF_buf1
*1189 BUFX4_42
*1190 OAI21X1_275
*1191 OAI21X1_48
*1192 OAI21X1_128
*1193 OAI21X1_56
*1194 OAI21X1_24
*1195 OAI21X1_8
*1196 _557__bF_buf0
*1197 BUFX4_43
*1198 OAI21X1_217
*1199 OAI21X1_226
*1200 OAI21X1_40
*1201 OAI21X1_16
*1202 OAI21X1_209
*1203 OAI21X1_32
*1204 _589__bF_buf2
*1205 BUFX4_50
*1206 OAI21X1_103
*1207 OAI21X1_228
*1208 OAI21X1_91
*1209 OAI21X1_238
*1210 OAI21X1_276
*1211 OAI21X1_107
*1212 _589__bF_buf1
*1213 BUFX4_51
*1214 OAI21X1_242
*1215 OAI21X1_290
*1216 OAI21X1_282
*1217 OAI21X1_280
*1218 OAI21X1_234
*1219 OAI21X1_232
*1220 _589__bF_buf0
*1221 BUFX4_52
*1222 OAI21X1_286
*1223 OAI21X1_240
*1224 OAI21X1_284
*1225 OAI21X1_230
*1226 OAI21X1_278
*1227 OAI21X1_105
*1228 _551__bF_buf3
*1229 BUFX4_53
*1230 OAI21X1_45
*1231 OAI21X1_29
*1232 OAI21X1_272
*1233 OAI21X1_133
*1234 OAI21X1_122
*1235 OAI21X1_301
*1236 _551__bF_buf2
*1237 BUFX4_54
*1238 OAI21X1_256
*1239 OAI21X1_264
*1240 OAI21X1_106
*1241 OAI21X1_285
*1242 OAI21X1_90
*1243 OAI21X1_237
*1244 _551__bF_buf1
*1245 BUFX4_55
*1246 OAI21X1_61
*1247 OAI21X1_77
*1248 OAI21X1_53
*1249 OAI21X1_214
*1250 OAI21X1_13
*1251 OAI21X1_206
*1252 _551__bF_buf0
*1253 BUFX4_56
*1254 OAI21X1_248
*1255 OAI21X1_21
*1256 OAI21X1_5
*1257 OAI21X1_69
*1258 OAI21X1_223
*1259 OAI21X1_37
*1260 _545__bF_buf3
*1261 BUFX4_57
*1262 OAI21X1_66
*1263 OAI21X1_34
*1264 OAI21X1_116
*1265 OAI21X1_42
*1266 OAI21X1_295
*1267 OAI21X1_231
*1268 _545__bF_buf2
*1269 BUFX4_58
*1270 OAI21X1_269
*1271 OAI21X1_261
*1272 OAI21X1_130
*1273 OAI21X1_2
*1274 OAI21X1_10
*1275 OAI21X1_203
*1276 _545__bF_buf1
*1277 BUFX4_59
*1278 OAI21X1_211
*1279 OAI21X1_50
*1280 OAI21X1_58
*1281 OAI21X1_84
*1282 OAI21X1_100
*1283 OAI21X1_279
*1284 _545__bF_buf0
*1285 BUFX4_60
*1286 OAI21X1_253
*1287 OAI21X1_74
*1288 OAI21X1_18
*1289 OAI21X1_245
*1290 OAI21X1_220
*1291 OAI21X1_26
*1292 _553__bF_buf3
*1293 BUFX4_69
*1294 OAI21X1_30
*1295 OAI21X1_54
*1296 OAI21X1_215
*1297 OAI21X1_62
*1298 OAI21X1_207
*1299 OAI21X1_14
*1300 _553__bF_buf2
*1301 BUFX4_70
*1302 OAI21X1_78
*1303 OAI21X1_6
*1304 OAI21X1_134
*1305 OAI21X1_265
*1306 OAI21X1_257
*1307 OAI21X1_22
*1308 _553__bF_buf1
*1309 BUFX4_71
*1310 OAI21X1_273
*1311 OAI21X1_38
*1312 OAI21X1_70
*1313 OAI21X1_46
*1314 OAI21X1_124
*1315 OAI21X1_249
*1316 _553__bF_buf0
*1317 BUFX4_72
*1318 OAI21X1_224
*1319 OAI21X1_287
*1320 OAI21X1_239
*1321 OAI21X1_92
*1322 OAI21X1_303
*1323 OAI21X1_108
*1324 _215_
*1325 NOR2X1_8
*1326 NAND2X1_148
*1327 NAND2X1_118
*1328 NAND2X1_109
*1329 NAND2X1_91
*1330 NAND2X1_100
*1331 NAND2X1_134
*1332 row_address[0]
*1333 DFFPOSX1_162
*1334 INVX2_2
*1335 NAND3X1_22
*1336 NAND3X1_18
*1337 NAND2X1_183
*1338 NOR2X1_9
*1339 NAND2X1_157
*1340 row_address[1]
*1341 DFFPOSX1_163
*1342 INVX2_1
*1343 NAND2X1_166
*1344 NAND3X1_18
*1345 NAND2X1_183
*1346 NAND3X1_22
*1347 NOR2X1_9
*1348 _573__bF_buf3
*1349 BUFX4_5
*1350 OR2X2_1
*1351 OAI21X1_113
*1352 OAI21X1_117
*1353 OAI21X1_121
*1354 OAI21X1_119
*1355 _573__bF_buf2
*1356 BUFX4_6
*1357 OAI21X1_284
*1358 OAI21X1_278
*1359 OAI21X1_276
*1360 OAI21X1_286
*1361 OAI21X1_288
*1362 _531__bF_buf3
*1363 BUFX4_32
*1364 OAI21X1_139
*1365 AOI21X1_10
*1366 AOI21X1_21
*1367 OAI21X1_148
*1368 OAI21X1_181
*1369 _531__bF_buf2
*1370 BUFX4_33
*1371 NOR2X1_16
*1372 NOR2X1_18
*1373 NOR2X1_13
*1374 OAI21X1_201
*1375 OR2X2_4
*1376 _531__bF_buf1
*1377 BUFX4_34
*1378 NOR2X1_8
*1379 OAI21X1_166
*1380 OAI21X1_218
*1381 OAI21X1_157
*1382 OAI21X1_195
*1383 _531__bF_buf0
*1384 BUFX4_35
*1385 AOI21X1_16
*1386 INVX8_11
*1387 AOI21X1_13
*1388 AOI21X1_26
*1389 AOI21X1_7
*1390 _651__bF_buf3
*1391 BUFX4_44
*1392 OAI21X1_292
*1393 OAI21X1_294
*1394 OAI21X1_125
*1395 OAI21X1_304
*1396 OAI21X1_302
*1397 _589_
*1398 INVX8_12
*1399 BUFX4_52
*1400 BUFX4_48
*1401 BUFX4_51
*1402 BUFX4_50
*1403 BUFX4_49
*1404 _539__bF_buf3
*1405 BUFX4_61
*1406 NAND3X1_6
*1407 NAND3X1_23
*1408 NAND3X1_1
*1409 NAND3X1_30
*1410 NAND2X1_219
*1411 _539__bF_buf2
*1412 BUFX4_62
*1413 NAND3X1_27
*1414 NAND3X1_2
*1415 NAND3X1_28
*1416 NAND3X1_31
*1417 NAND3X1_7
*1418 _539__bF_buf1
*1419 BUFX4_63
*1420 NAND3X1_25
*1421 NAND3X1_24
*1422 NAND3X1_10
*1423 NAND3X1_26
*1424 NAND3X1_29
*1425 _539__bF_buf0
*1426 BUFX4_64
*1427 NAND3X1_8
*1428 NAND3X1_5
*1429 NAND3X1_4
*1430 NAND3X1_3
*1431 NAND3X1_9
*1432 _533__bF_buf3
*1433 BUFX4_65
*1434 OAI21X1_298
*1435 OAI21X1_306
*1436 OAI21X1_300
*1437 OAI21X1_296
*1438 OAI21X1_292
*1439 _621_
*1440 NOR2X1_19
*1441 NAND3X1_28
*1442 NAND3X1_6
*1443 INVX4_2
*1444 NAND2X1_81
*1445 NAND3X1_29
*1446 _610_
*1447 NOR2X1_17
*1448 NAND3X1_27
*1449 NAND3X1_7
*1450 NAND3X1_10
*1451 NAND2X1_80
*1452 INVX4_1
*1453 _587_
*1454 NOR2X1_15
*1455 NAND2X1_218
*1456 NAND2X1_80
*1457 NAND2X1_184
*1458 NAND2X1_81
*1459 INVX8_12
*1460 _529_
*1461 INVX4_5
*1462 AOI21X1_1
*1463 OAI21X1_176
*1464 NOR2X1_10
*1465 OAI21X1_227
*1466 OAI21X1_190
*1467 ras
*1468 AOI21X1_3
*1469 NOR2X1_5
*1470 NOR2X1_4
*1471 NAND2X1_154
*1472 AOI21X1_2
*1473 vas
*1474 NAND2X1_155
*1475 AOI21X1_4
*1476 NOR2X1_6
*1477 AOI21X1_5
*1478 NOR2X1_7
*1479 _530_
*1480 INVX4_6
*1481 AOI21X1_5
*1482 OAI21X1_176
*1483 NOR2X1_10
*1484 OAI21X1_227
*1485 OAI21X1_190
*1486 _547_
*1487 INVX8_5
*1488 BUFX4_3
*1489 BUFX4_4
*1490 BUFX4_1
*1491 BUFX4_2
*1492 _573_
*1493 OAI21X1_218
*1494 BUFX4_7
*1495 BUFX4_8
*1496 BUFX4_6
*1497 BUFX4_5
*1498 _573__bF_buf1
*1499 BUFX4_7
*1500 OAI21X1_127
*1501 OAI21X1_123
*1502 INVX4_9
*1503 OAI21X1_115
*1504 _573__bF_buf0
*1505 BUFX4_8
*1506 OAI21X1_125
*1507 OAI21X1_280
*1508 OAI21X1_282
*1509 OAI21X1_290
*1510 _555_
*1511 INVX8_9
*1512 BUFX4_25
*1513 BUFX4_26
*1514 BUFX4_24
*1515 BUFX4_27
*1516 _549_
*1517 INVX8_6
*1518 BUFX4_29
*1519 BUFX4_31
*1520 BUFX4_28
*1521 BUFX4_30
*1522 _531_
*1523 NOR2X1_10
*1524 BUFX4_35
*1525 BUFX4_32
*1526 BUFX4_34
*1527 BUFX4_33
*1528 _528_
*1529 INVX8_2
*1530 BUFX4_37
*1531 BUFX4_39
*1532 BUFX4_36
*1533 BUFX4_38
*1534 _557_
*1535 INVX8_10
*1536 BUFX4_43
*1537 BUFX4_41
*1538 BUFX4_42
*1539 BUFX4_40
*1540 _651_
*1541 NAND2X1_219
*1542 BUFX4_45
*1543 BUFX4_44
*1544 BUFX4_46
*1545 BUFX4_47
*1546 _651__bF_buf2
*1547 BUFX4_45
*1548 OAI21X1_298
*1549 OAI21X1_306
*1550 OAI21X1_300
*1551 OAI21X1_296
*1552 _651__bF_buf1
*1553 BUFX4_46
*1554 OAI21X1_119
*1555 OAI21X1_113
*1556 OAI21X1_117
*1557 OAI21X1_121
*1558 _651__bF_buf0
*1559 BUFX4_47
*1560 OR2X2_1
*1561 OAI21X1_115
*1562 OAI21X1_127
*1563 OAI21X1_123
*1564 _551_
*1565 INVX8_7
*1566 BUFX4_55
*1567 BUFX4_56
*1568 BUFX4_54
*1569 BUFX4_53
*1570 _545_
*1571 INVX8_4
*1572 BUFX4_59
*1573 BUFX4_57
*1574 BUFX4_58
*1575 BUFX4_60
*1576 _539_
*1577 INVX8_3
*1578 BUFX4_63
*1579 BUFX4_64
*1580 BUFX4_62
*1581 BUFX4_61
*1582 _533_
*1583 OAI21X1_201
*1584 BUFX4_68
*1585 BUFX4_66
*1586 BUFX4_65
*1587 BUFX4_67
*1588 _533__bF_buf2
*1589 BUFX4_66
*1590 OAI21X1_294
*1591 OAI21X1_304
*1592 OAI21X1_302
*1593 INVX4_7
*1594 _533__bF_buf1
*1595 BUFX4_67
*1596 OAI21X1_230
*1597 OAI21X1_240
*1598 OAI21X1_236
*1599 OAI21X1_238
*1600 _533__bF_buf0
*1601 BUFX4_68
*1602 OAI21X1_232
*1603 OAI21X1_234
*1604 OAI21X1_242
*1605 OAI21X1_228
*1606 _553_
*1607 INVX8_8
*1608 BUFX4_71
*1609 BUFX4_72
*1610 BUFX4_70
*1611 BUFX4_69
*1612 _542_
*1613 NOR2X1_13
*1614 NAND3X1_23
*1615 NAND3X1_1
*1616 NAND3X1_6
*1617 NAND3X1_7
*1618 _611_
*1619 NOR2X1_18
*1620 NAND3X1_31
*1621 NAND3X1_2
*1622 NAND3X1_28
*1623 NAND3X1_27
*1624 _599_
*1625 NOR2X1_16
*1626 NAND3X1_9
*1627 NAND3X1_29
*1628 NAND3X1_26
*1629 NAND3X1_10
*1630 cas
*1631 NAND2X1_155
*1632 AOI21X1_1
*1633 NOR2X1_3
*1634 _560_
*1635 INVX2_2
*1636 AOI21X1_2
*1637 NAND2X1_166
*1638 NAND2X1_185
*1639 _540_
*1640 INVX2_1
*1641 NAND2X1_185
*1642 AOI21X1_3
*1643 NAND2X1_157
*1644 Mem[17][1]
*1645 DFFPOSX1_82
*1646 MUX2X1_13
*1647 NAND2X1_1
*1648 Mem[17][2]
*1649 DFFPOSX1_83
*1650 NAND2X1_2
*1651 MUX2X1_22
*1652 Mem[17][3]
*1653 DFFPOSX1_84
*1654 MUX2X1_31
*1655 NAND2X1_3
*1656 Mem[17][4]
*1657 DFFPOSX1_85
*1658 MUX2X1_47
*1659 NAND2X1_4
*1660 Mem[17][5]
*1661 DFFPOSX1_86
*1662 MUX2X1_53
*1663 NAND2X1_5
*1664 Mem[17][6]
*1665 DFFPOSX1_87
*1666 NAND2X1_6
*1667 MUX2X1_69
*1668 Mem[17][7]
*1669 DFFPOSX1_88
*1670 NAND2X1_7
*1671 MUX2X1_75
*1672 Mem[8][0]
*1673 DFFPOSX1_89
*1674 NAND2X1_8
*1675 MUX2X1_1
*1676 Mem[8][1]
*1677 DFFPOSX1_90
*1678 NAND2X1_9
*1679 MUX2X1_10
*1680 Mem[8][2]
*1681 DFFPOSX1_91
*1682 NAND2X1_10
*1683 MUX2X1_19
*1684 Mem[8][3]
*1685 DFFPOSX1_92
*1686 MUX2X1_28
*1687 NAND2X1_11
*1688 Mem[8][4]
*1689 DFFPOSX1_93
*1690 MUX2X1_38
*1691 NAND2X1_12
*1692 Mem[8][5]
*1693 DFFPOSX1_94
*1694 NAND2X1_13
*1695 MUX2X1_50
*1696 Mem[8][6]
*1697 DFFPOSX1_95
*1698 MUX2X1_60
*1699 NAND2X1_14
*1700 Mem[8][7]
*1701 DFFPOSX1_96
*1702 MUX2X1_72
*1703 NAND2X1_15
*1704 Mem[16][0]
*1705 DFFPOSX1_97
*1706 NAND2X1_16
*1707 MUX2X1_4
*1708 Mem[16][1]
*1709 DFFPOSX1_98
*1710 MUX2X1_13
*1711 NAND2X1_17
*1712 Mem[16][2]
*1713 DFFPOSX1_99
*1714 MUX2X1_22
*1715 NAND2X1_18
*1716 Mem[16][3]
*1717 DFFPOSX1_100
*1718 NAND2X1_19
*1719 MUX2X1_31
*1720 Mem[16][4]
*1721 DFFPOSX1_101
*1722 NAND2X1_20
*1723 MUX2X1_47
*1724 Mem[16][5]
*1725 DFFPOSX1_102
*1726 MUX2X1_53
*1727 NAND2X1_21
*1728 Mem[16][6]
*1729 DFFPOSX1_103
*1730 MUX2X1_69
*1731 NAND2X1_22
*1732 Mem[16][7]
*1733 DFFPOSX1_104
*1734 NAND2X1_23
*1735 MUX2X1_75
*1736 _687_
*1737 NOR2X1_1
*1738 NAND3X1_3
*1739 NAND3X1_4
*1740 Mem[13][0]
*1741 DFFPOSX1_105
*1742 NAND2X1_24
*1743 INVX1_7
*1744 Mem[13][1]
*1745 DFFPOSX1_106
*1746 NAND2X1_25
*1747 INVX1_15
*1748 Mem[13][2]
*1749 DFFPOSX1_107
*1750 NAND2X1_26
*1751 INVX1_23
*1752 Mem[13][3]
*1753 DFFPOSX1_108
*1754 NAND2X1_27
*1755 INVX1_31
*1756 Mem[13][4]
*1757 DFFPOSX1_109
*1758 NAND2X1_126
*1759 NAND2X1_28
*1760 Mem[13][5]
*1761 DFFPOSX1_110
*1762 INVX1_43
*1763 NAND2X1_29
*1764 Mem[13][6]
*1765 DFFPOSX1_111
*1766 NAND2X1_140
*1767 NAND2X1_30
*1768 Mem[13][7]
*1769 DFFPOSX1_112
*1770 NAND2X1_31
*1771 INVX1_55
*1772 Mem[12][0]
*1773 DFFPOSX1_113
*1774 NAND2X1_32
*1775 INVX1_4
*1776 Mem[12][1]
*1777 DFFPOSX1_114
*1778 INVX1_12
*1779 NAND2X1_33
*1780 Mem[12][2]
*1781 DFFPOSX1_115
*1782 INVX1_20
*1783 NAND2X1_34
*1784 Mem[12][3]
*1785 DFFPOSX1_116
*1786 NAND2X1_35
*1787 INVX1_28
*1788 Mem[12][4]
*1789 DFFPOSX1_117
*1790 NAND2X1_36
*1791 INVX1_33
*1792 Mem[12][5]
*1793 DFFPOSX1_118
*1794 INVX1_39
*1795 NAND2X1_37
*1796 Mem[12][6]
*1797 DFFPOSX1_119
*1798 INVX1_45
*1799 NAND2X1_38
*1800 Mem[12][7]
*1801 DFFPOSX1_120
*1802 INVX1_51
*1803 NAND2X1_39
*1804 _706_
*1805 NOR2X1_2
*1806 NAND3X1_8